@<TRIPOS>MOLECULE
mol
37500 30000
SMALL
USER_CHARGES


@<TRIPOS>ATOM
1 C 85.190244976838 18.21950899501695 54.95741584187573 C 0.0 **** -0.24
2 H 84.95162724959876 17.992907090315096 53.91849284288193 H 0.0 **** 0.06
3 H 85.7188550330533 19.171071884533074 55.00971609019928 H 0.0 **** 0.06
4 H 85.82102528408389 17.42988373613724 55.365322696287365 H 0.0 **** 0.06
5 H 84.26826838678839 18.283673071479722 55.535583653622666 H 0.0 **** 0.06
6 C 99.52999446215651 105.20979940231507 104.95024884375104 C 0.0 **** -0.24
7 H 99.03911174318617 104.51150211552522 105.62775891316245 H 0.0 **** 0.06
8 H 98.77824277071147 105.73007662680527 104.35567847081079 H 0.0 **** 0.06
9 H 100.2010854518367 104.66205481822186 104.2880089631693 H 0.0 **** 0.06
10 H 100.10229047494175 105.93540582456035 105.52890979404536 H 0.0 **** 0.06
11 C 84.60721736923898 57.31305462418484 39.4344481804967 C 0.0 **** -0.24
12 H 83.83303792269982 56.567300775531976 39.25480623432571 H 0.0 **** 0.06
13 H 84.19090106820116 58.31065512357213 39.28899054819604 H 0.0 **** 0.06
14 H 85.42974341056231 57.15819877450184 38.73617141491192 H 0.0 **** 0.06
15 H 84.97403493545511 57.21717589568917 40.45626371844813 H 0.0 **** 0.06
16 C 55.11210538587264 97.98507119400003 22.53482453473484 C 0.0 **** -0.24
17 H 55.97625066637988 98.35443369952873 23.08689077134366 H 0.0 **** 0.06
18 H 54.20957663000911 98.13996479545511 23.126221770293927 H 0.0 **** 0.06
19 H 55.23795372684316 96.92079848530466 22.33349468902911 H 0.0 **** 0.06
20 H 55.02607630630777 98.52545272541315 21.591793415446823 H 0.0 **** 0.06
21 C 9.152468965837798 104.96627382651846 105.74729766078839 C 0.0 **** -0.24
22 H 8.403076112919749 105.42502377753257 105.10250569226147 H 0.0 **** 0.06
23 H 10.097190730921312 104.88766470011096 105.20828345850153 H 0.0 **** 0.06
24 H 8.818296269437553 103.97214267805491 106.04221235101232 H 0.0 **** 0.06
25 H 9.291930967479743 105.58153456873669 106.6361263439567 H 0.0 **** 0.06
26 C 74.07731361452193 36.231556170910366 85.44469103180123 C 0.0 **** -0.24
27 H 74.19077082826752 35.52173446836145 84.62420729383484 H 0.0 **** 0.06
28 H 73.02064706341923 36.332145963901766 85.69359338623602 H 0.0 **** 0.06
29 H 74.47444207060133 37.200202106715615 85.14382922873602 H 0.0 **** 0.06
30 H 74.62350918701355 35.868592724943085 86.31481271943909 H 0.0 **** 0.06
31 C 10.844434619992956 37.04289849749182 58.34810761575372 C 0.0 **** -0.24
32 H 10.63594705785663 37.487577459354725 57.37464294912377 H 0.0 **** 0.06
33 H 11.905201366336726 36.802765982625374 58.418001336892814 H 0.0 **** 0.06
34 H 10.256258552014655 36.133099593916995 58.46545197802081 H 0.0 **** 0.06
35 H 10.579524660560176 37.751016091406086 59.133959448383905 H 0.0 **** 0.06
36 C 71.50584900517885 56.57177289139553 78.51582270825433 C 0.0 **** -0.24
37 H 72.2204352428559 57.20133259992879 79.04627530589862 H 0.0 **** 0.06
38 H 71.90638956428224 56.31437478482945 77.53530736502837 H 0.0 **** 0.06
39 H 70.56617120898056 57.11158197411415 78.39489420899416 H 0.0 **** 0.06
40 H 71.33010652338503 55.66063812484757 79.08830232747277 H 0.0 **** 0.06
41 C 65.78968934444089 0.3930757009706696 21.794305228217524 C 0.0 **** -0.24
42 H 66.80861106030268 0.7640921781636081 21.896565118731928 H 0.0 **** 0.06
43 H 65.0927805162409 1.1215840637520245 22.209084122300965 H 0.0 **** 0.06
44 H 65.69117123251438 -0.5512823526983937 22.330400324001005 H 0.0 **** 0.06
45 H 65.5653638584895 0.2359333208444383 20.739071968044698 H 0.0 **** 0.06
46 C 53.87828404362736 61.7375662203535 100.42370728381594 C 0.0 **** -0.24
47 H 54.116605424833324 62.79148818473476 100.56891851603649 H 0.0 **** 0.06
48 H 52.79917816808128 61.597587760306254 100.48836337726765 H 0.0 **** 0.06
49 H 54.369120588046655 61.145374765773965 101.19579057748115 H 0.0 **** 0.06
50 H 54.22873124738868 61.41793422875 99.44287755533757 H 0.0 **** 0.06
51 C 53.506440926044604 50.09489431558731 43.89257099202672 C 0.0 **** -0.24
52 H 53.45052880745271 50.75149924358328 43.02429012151538 H 0.0 **** 0.06
53 H 53.259497041616186 50.660098595357255 44.79091929414068 H 0.0 **** 0.06
54 H 54.51756842193227 49.69510688358247 43.97993314477122 H 0.0 **** 0.06
55 H 52.80027188574057 49.27326861883364 43.77260697290069 H 0.0 **** 0.06
56 C 55.16680746656944 60.522084109647935 42.52427732847364 C 0.0 **** -0.24
57 H 55.06677165805186 61.28198989900932 41.748467459243315 H 0.0 **** 0.06
58 H 55.73466872994354 59.67774217094977 42.13351379623691 H 0.0 **** 0.06
59 H 54.17693307692535 60.18524678263174 42.83101848388501 H 0.0 **** 0.06
60 H 55.6887914337187 60.94683755342443 43.38168336395059 H 0.0 **** 0.06
61 C 45.838839267395095 106.91171488678829 2.216117221795316 C 0.0 **** -0.24
62 H 45.9104471132449 107.61995950705662 3.0416726387075324 H 0.0 **** 0.06
63 H 46.28727761267424 107.34744139295789 1.3241428668679607 H 0.0 **** 0.06
64 H 44.790544894143714 106.68480397095944 2.0232385492842937 H 0.0 **** 0.06
65 H 46.36715232192762 105.99486263396633 2.4788721636169724 H 0.0 **** 0.06
66 C 68.10201369962988 72.70206174365933 68.89342180977289 C 0.0 **** -0.24
67 H 67.44192360492764 71.96397203287484 68.43708143163539 H 0.0 **** 0.06
68 H 69.02628018188705 72.76686051072912 68.31784076851235 H 0.0 **** 0.06
69 H 68.33018881390183 72.40210083989122 69.91629983160048 H 0.0 **** 0.06
70 H 67.6092373561309 73.67404084179586 68.89997522440659 H 0.0 **** 0.06
71 C 55.16080588617234 75.48843382571043 28.5794054917338 C 0.0 **** -0.24
72 H 55.75505888888972 74.73028936850312 29.089586066747366 H 0.0 **** 0.06
73 H 54.24591738701832 75.67173323674031 29.142823827653928 H 0.0 **** 0.06
74 H 54.90814274355154 75.13954578180046 27.578274971420043 H 0.0 **** 0.06
75 H 55.734590794622534 76.41234297281048 28.50825340088953 H 0.0 **** 0.06
76 C 26.95237667650099 63.50449734357409 88.04514809425694 C 0.0 **** -0.24
77 H 26.958339198655494 64.5787065716545 87.85681617520586 H 0.0 **** 0.06
78 H 25.933020306189093 63.12704886345085 87.96589479604756 H 0.0 **** 0.06
79 H 27.335833170622152 63.309657542475065 89.04723665615313 H 0.0 **** 0.06
80 H 27.58380272046162 63.004234559997485 87.31083061132566 H 0.0 **** 0.06
81 C 23.8448556760042 17.35165268341541 61.837253960145375 C 0.0 **** -0.24
82 H 24.218287137263815 18.249856162071694 62.33094152271329 H 0.0 **** 0.06
83 H 23.764151169956406 17.532852270670105 60.76572172677896 H 0.0 **** 0.06
84 H 22.863966365672795 17.098881032649103 62.23973068361116 H 0.0 **** 0.06
85 H 24.534455605459726 16.526626796442656 62.01627656904259 H 0.0 **** 0.06
86 C 12.924946679101577 76.94856028812436 82.33678374122968 C 0.0 **** -0.24
87 H 13.056448704668231 77.99913658032624 82.07906004947432 H 0.0 **** 0.06
88 H 12.771107530167203 76.85534120417108 83.41220162302676 H 0.0 **** 0.06
89 H 13.81515232605529 76.39012360625789 82.04622862875061 H 0.0 **** 0.06
90 H 12.05848721767667 76.55027965651401 81.80886670020641 H 0.0 **** 0.06
91 C 105.38838378551577 69.12373698392321 3.7279891648540655 C 0.0 **** -0.24
92 H 104.69112794984193 69.5195777641664 2.9894343257480793 H 0.0 **** 0.06
93 H 106.05455866415019 68.40459824308857 3.249404313966064 H 0.0 **** 0.06
94 H 104.83230216728163 68.62977990882672 4.5243530710775754 H 0.0 **** 0.06
95 H 105.97640533050179 69.93957650640118 4.146959736542158 H 0.0 **** 0.06
96 C 92.22387269445012 16.816387632654283 45.49883946399248 C 0.0 **** -0.24
97 H 91.48534717259528 16.903399319188964 44.70089588033602 H 0.0 **** 0.06
98 H 92.11492944894287 15.84924215813487 45.98977517399399 H 0.0 **** 0.06
99 H 92.068530636033 17.613700789647197 46.22582601827713 H 0.0 **** 0.06
100 H 93.2246980729613 16.899781949434185 45.0762666691065 H 0.0 **** 0.06
101 C 50.24687798370136 107.00114527033901 20.28413530223895 C 0.0 **** -0.24
102 H 50.257877621954556 107.88001671895006 19.640361434694967 H 0.0 **** 0.06
103 H 49.590095545449046 106.24454772264284 19.855405995279995 H 0.0 **** 0.06
104 H 49.88327191464143 107.28094327856178 21.273415150109145 H 0.0 **** 0.06
105 H 51.25708646053156 106.6009508695513 20.36825498439714 H 0.0 **** 0.06
106 C 77.44446962287796 98.00354906409858 72.39389788951456 C 0.0 **** -0.24
107 H 77.81275028261554 97.78617859935981 73.39713433350457 H 0.0 **** 0.06
108 H 78.0938051028127 97.52902233170312 71.65814271262548 H 0.0 **** 0.06
109 H 77.43985156310691 99.08094141385082 72.23484707379822 H 0.0 **** 0.06
110 H 76.43046093110564 97.61649546557652 72.28782335746837 H 0.0 **** 0.06
111 C 62.6905908855511 5.002830822195477 69.53633696389647 C 0.0 **** -0.24
112 H 62.37741687344453 3.963052507533831 69.63227430597283 H 0.0 **** 0.06
113 H 63.72209557860191 5.102869301317071 69.87427370295961 H 0.0 **** 0.06
114 H 62.045068738124755 5.6345631864886485 70.14632075765087 H 0.0 **** 0.06
115 H 62.6190543256256 5.309001358560224 68.4923896398465 H 0.0 **** 0.06
116 C 75.4547925659881 15.189338541404595 50.566859244216175 C 0.0 **** -0.24
117 H 74.7039246362013 14.769551016247675 49.89756062383657 H 0.0 **** 0.06
118 H 75.62289126964107 14.504619187441136 51.39937602992893 H 0.0 **** 0.06
119 H 75.10409286618011 16.14748305258226 50.95013156382947 H 0.0 **** 0.06
120 H 76.3873179136275 15.33467762912494 50.02238441173307 H 0.0 **** 0.06
121 C 86.85168575467296 12.570617377040207 40.912981434435494 C 0.0 **** -0.24
122 H 86.41202585708709 13.33574536845424 41.55295815582659 H 0.0 **** 0.06
123 H 87.47606148270441 13.045633405655622 40.155623108139054 H 0.0 **** 0.06
124 H 86.05740191011083 12.004244422641364 40.425847205653355 H 0.0 **** 0.06
125 H 87.46058562686216 11.89721620234684 41.51630694625368 H 0.0 **** 0.06
126 C 33.787625818755146 71.76255007176326 11.056768867562411 C 0.0 **** -0.24
127 H 34.309760205156294 71.05636878802522 11.702764661934765 H 0.0 **** 0.06
128 H 33.916656768185476 72.7732664144022 11.444960046112342 H 0.0 **** 0.06
129 H 32.72646743633388 71.51579461504969 11.030625572762688 H 0.0 **** 0.06
130 H 34.199834182307825 71.70507399600973 10.048703049206878 H 0.0 **** 0.06
131 C 3.0235418311067264 93.45628486275379 65.61611274799455 C 0.0 **** -0.24
132 H 4.066344538576814 93.4825718894508 65.29951302941976 H 0.0 **** 0.06
133 H 2.6632867701941763 94.47464159837426 65.76330559130895 H 0.0 **** 0.06
134 H 2.9418368617522646 92.90265584726065 66.5516511437304 H 0.0 **** 0.06
135 H 2.4236519112159556 92.96529737234135 64.8496786384614 H 0.0 **** 0.06
136 C 21.18352220830498 40.33463513300555 1.907851889804462 C 0.0 **** -0.24
137 H 20.206345662327635 40.79283190684198 2.0546527476835905 H 0.0 **** 0.06
138 H 21.71622365935302 40.860492756280905 1.1143924546468895 H 0.0 **** 0.06
139 H 21.056974452770106 39.28870675280416 1.6296373740361219 H 0.0 **** 0.06
140 H 21.756466657523887 40.39765217267667 2.8327585627491345 H 0.0 **** 0.06
141 C 36.74700420911179 57.02208012037893 84.5798479835833 C 0.0 **** -0.24
142 H 35.93458204017864 57.721955026776314 84.7753913230877 H 0.0 **** 0.06
143 H 36.36187450296953 56.00226943004738 84.60571637201795 H 0.0 **** 0.06
144 H 37.51862368861691 57.13938154506922 85.33954563955001 H 0.0 **** 0.06
145 H 37.171783536803446 57.22527228327194 83.59621675790429 H 0.0 **** 0.06
146 C 97.9916622425461 104.75875445721772 34.200709542844635 C 0.0 **** -0.24
147 H 97.87510084108291 105.48853287132087 33.399766506142 H 0.0 **** 0.06
148 H 98.04880441299446 103.75699755291151 33.772875666614176 H 0.0 **** 0.06
149 H 97.13688477219338 104.81807469711515 34.87388515909677 H 0.0 **** 0.06
150 H 98.90613938923262 104.97058397321561 34.75402286069056 H 0.0 **** 0.06
151 C 31.93280805327845 52.63543493396388 86.74056604314376 C 0.0 **** -0.24
152 H 31.959534843679137 51.738372939469095 87.35833482596206 H 0.0 **** 0.06
153 H 31.2645324850252 53.36885544304064 87.19380668051517 H 0.0 **** 0.06
154 H 31.570166387916885 52.38023253778272 85.74477157144622 H 0.0 **** 0.06
155 H 32.93580192101919 53.05544897263056 86.66579728767354 H 0.0 **** 0.06
156 C 28.728161002916778 55.27207008370693 41.86033885784142 C 0.0 **** -0.24
157 H 29.31641481513941 55.54608936572991 42.735559802043774 H 0.0 **** 0.06
158 H 28.88561160225845 54.21734299453642 41.632802081532304 H 0.0 **** 0.06
159 H 29.03807967602188 55.87853264337064 41.00943496650862 H 0.0 **** 0.06
160 H 27.671751383145562 55.445998317001504 42.06469037791953 H 0.0 **** 0.06
161 C 72.62392992534791 5.390910108781753 92.32500602458414 C 0.0 **** -0.24
162 H 72.58697513815065 4.334199990754058 92.58681866076769 H 0.0 **** 0.06
163 H 72.68934006811406 5.989118447757647 93.23432951171347 H 0.0 **** 0.06
164 H 71.72110615544511 5.660108444466914 91.77611496396506 H 0.0 **** 0.06
165 H 73.4976525725915 5.5812121407963815 91.70150161514853 H 0.0 **** 0.06
166 C 46.474558160117795 37.32134375022409 68.7266348917882 C 0.0 **** -0.24
167 H 45.80510758243145 37.61626332525276 69.5354527281052 H 0.0 **** 0.06
168 H 46.76698026340995 38.205242143387835 68.15882430578895 H 0.0 **** 0.06
169 H 45.96295649707292 36.61955048424721 68.06937183829147 H 0.0 **** 0.06
170 H 47.362031862824864 36.847380647228874 69.14470452036461 H 0.0 **** 0.06
171 C 78.20525438896124 14.002416133982127 25.09921768274151 C 0.0 **** -0.24
172 H 77.1545333864018 14.28764369685127 25.151019932037485 H 0.0 **** 0.06
173 H 78.7115834240692 14.613080839698135 24.351557066305276 H 0.0 **** 0.06
174 H 78.28345448293112 12.95094686400569 24.823165199894532 H 0.0 **** 0.06
175 H 78.67236826966507 14.158795607686326 26.071839897587438 H 0.0 **** 0.06
176 C 15.311672243511111 4.956394799927901 62.08903639835489 C 0.0 **** -0.24
177 H 15.85963145261698 5.899247627225389 62.08071931536068 H 0.0 **** 0.06
178 H 14.563013622310052 4.978603774188199 62.8811436570455 H 0.0 **** 0.06
179 H 16.00580241645025 4.135581874653218 62.26936472774838 H 0.0 **** 0.06
180 H 14.820547822746676 4.8133286991327555 61.12742438118397 H 0.0 **** 0.06
181 C 97.77684290140013 65.78011484261589 11.158559575790065 C 0.0 **** -0.24
182 H 98.27703524144279 64.81514682354452 11.067596483614992 H 0.0 **** 0.06
183 H 98.31313609709666 66.40103114129093 11.876543174934497 H 0.0 **** 0.06
184 H 96.75397543394662 65.62751341068584 11.502255355502257 H 0.0 **** 0.06
185 H 97.7642775389821 66.2747962185444 10.187778822634655 H 0.0 **** 0.06
186 C 74.50472722632145 100.11870487722837 80.23548459504832 C 0.0 **** -0.24
187 H 74.07045214112918 101.11699277494478 80.30055649113649 H 0.0 **** 0.06
188 H 73.84629594617371 99.47442735104781 79.65170839890595 H 0.0 **** 0.06
189 H 74.62061134068063 99.70693418374546 81.23737109804397 H 0.0 **** 0.06
190 H 75.47937559968898 100.17730010322038 79.75154246537622 H 0.0 **** 0.06
191 C 103.30548015424802 98.07358389065526 31.28794066824645 C 0.0 **** -0.24
192 H 104.30584304344166 97.7157372018097 31.0452872556246 H 0.0 **** 0.06
193 H 102.92809301426092 97.5327025402835 32.15672329738459 H 0.0 **** 0.06
194 H 102.6431927866262 97.90658619951873 30.438537894533596 H 0.0 **** 0.06
195 H 103.34587161985499 99.13977583291543 31.51336291662156 H 0.0 **** 0.06
196 C 19.201846232892933 61.680267220394484 40.14415187298087 C 0.0 **** -0.24
197 H 20.131064558761338 61.11168651857645 40.1891650282054 H 0.0 **** 0.06
198 H 18.579453610955895 61.294912387520554 39.33569283977931 H 0.0 **** 0.06
199 H 19.428576885719053 62.73119762051553 39.95904793271271 H 0.0 **** 0.06
200 H 18.671192001788413 61.58460895309159 41.090754419854335 H 0.0 **** 0.06
201 C 54.024489287651456 18.926919223431526 91.81571421837545 C 0.0 **** -0.24
202 H 54.845370682267 18.84031794420349 92.52749916613905 H 0.0 **** 0.06
203 H 53.629229723430086 17.935243609489447 91.59539803362449 H 0.0 **** 0.06
204 H 54.387794963235834 19.386147913823805 90.8963569106824 H 0.0 **** 0.06
205 H 53.23624799885024 19.54631787742906 92.2447886757937 H 0.0 **** 0.06
206 C 107.48606991941057 20.02613340019954 8.705609212395075 C 0.0 **** -0.24
207 H 108.53815383037157 20.068006172399777 8.422240160328812 H 0.0 **** 0.06
208 H 107.27131295030856 20.817742663217587 9.422688724088431 H 0.0 **** 0.06
209 H 107.27046861675257 19.05744786070943 9.15709597367939 H 0.0 **** 0.06
210 H 106.86679440559887 20.15940864866465 7.818601091369885 H 0.0 **** 0.06
211 C 85.39433391575193 68.27054404046909 13.888695774556027 C 0.0 **** -0.24
212 H 85.54452125499108 67.51128368806164 13.12107910464951 H 0.0 **** 0.06
213 H 84.52452806441107 68.87584968067658 13.635001692320486 H 0.0 **** 0.06
214 H 86.27683070036721 68.9075243005719 13.947000395765542 H 0.0 **** 0.06
215 H 85.23210306945356 67.78682626058165 14.852020815697955 H 0.0 **** 0.06
216 C 73.67424795250236 21.326353573257848 0.01254329822307021 C 0.0 **** -0.24
217 H 73.53874406555815 20.841355510241343 -0.9539743792703153 H 0.0 **** 0.06
218 H 74.70642481451074 21.663330492138783 0.10908009381841932 H 0.0 **** 0.06
219 H 73.44585791102014 20.61811830449585 0.8096503849518522 H 0.0 **** 0.06
220 H 73.00367438671583 22.183445137687826 0.08565336294089398 H 0.0 **** 0.06
221 C 73.65581227785734 78.20343396970443 29.390856464002894 C 0.0 **** -0.24
222 H 73.52867371407415 77.32944340673112 28.752190561033053 H 0.0 **** 0.06
223 H 72.68469599862895 78.51558470980257 29.776040821323875 H 0.0 **** 0.06
224 H 74.09533040699465 79.01565826616346 28.811474558184038 H 0.0 **** 0.06
225 H 74.31392704400719 77.95302440584788 30.222450013663824 H 0.0 **** 0.06
226 C 56.61511027495865 67.34412106799704 105.79460669604828 C 0.0 **** -0.24
227 H 56.79484801922206 68.28390916944448 106.31580194151292 H 0.0 **** 0.06
228 H 55.565993858777375 67.28431366201045 105.50491775119696 H 0.0 **** 0.06
229 H 56.85873123106944 66.51147862681444 106.45448036349927 H 0.0 **** 0.06
230 H 57.24191891198427 67.29685110123813 104.90417065621256 H 0.0 **** 0.06
231 C 78.02453987434069 106.25355723058604 48.89299538637062 C 0.0 **** -0.24
232 H 77.3010884906565 105.4940201115727 48.596311491636214 H 0.0 **** 0.06
233 H 78.39740571606305 106.76511788396454 48.00546812400494 H 0.0 **** 0.06
234 H 78.8556780571713 105.77939372765283 49.414989789335024 H 0.0 **** 0.06
235 H 77.54356587239644 106.97476819013733 49.55423260174568 H 0.0 **** 0.06
236 C 76.4969362686085 38.27000004598659 107.01160610003336 C 0.0 **** -0.24
237 H 76.7407728263157 39.2228509145429 107.47884554550876 H 0.0 **** 0.06
238 H 77.13120624935101 37.48718084585391 107.4292765761547 H 0.0 **** 0.06
239 H 76.66398124119306 38.338461203713734 105.93647730324258 H 0.0 **** 0.06
240 H 75.45049698964712 38.02953658770758 107.20114780459824 H 0.0 **** 0.06
241 C 99.21037347917577 63.55113395225516 7.604586024586922 C 0.0 **** -0.24
242 H 99.94662916740582 63.31468656941186 8.37328108645869 H 0.0 **** 0.06
243 H 99.20901445807509 64.6267989634824 7.421752991324581 H 0.0 **** 0.06
244 H 98.22260229685348 63.23771869985791 7.939472174733169 H 0.0 **** 0.06
245 H 99.46649064510896 63.027191709331504 6.6839985157236015 H 0.0 **** 0.06
246 C 42.05748437636359 97.21976835557399 15.53726066843447 C 0.0 **** -0.24
247 H 43.14197242681655 97.14832344051126 15.620748153397443 H 0.0 **** 0.06
248 H 41.64310390960844 96.23231308175917 15.333666020598429 H 0.0 **** 0.06
249 H 41.79955709162725 97.89820519683559 14.724831121196075 H 0.0 **** 0.06
250 H 41.64591956112376 97.60046677320184 16.47272421434519 H 0.0 **** 0.06
251 C 93.64420331540742 99.12821015407317 79.77893965414793 C 0.0 **** -0.24
252 H 94.56981264979603 99.6849028499954 79.92182917410591 H 0.0 **** 0.06
253 H 93.58482925752443 98.78164144325008 78.74730953486007 H 0.0 **** 0.06
254 H 92.7938162628716 99.77673319006567 79.99435482803256 H 0.0 **** 0.06
255 H 93.62724287677804 98.27173534723451 80.45247664771225 H 0.0 **** 0.06
256 C 87.13258339415044 20.402188021088307 23.543384940834457 C 0.0 **** -0.24
257 H 86.15689873047239 20.85161242000217 23.724130442022187 H 0.0 **** 0.06
258 H 87.00115658319629 19.414232869956294 23.10188807420036 H 0.0 **** 0.06
259 H 87.6706412539926 20.31064338987713 24.486731201626426 H 0.0 **** 0.06
260 H 87.70239617677126 21.03246880702895 22.86017236955415 H 0.0 **** 0.06
261 C 37.78798965389268 8.089154984501292 6.067198900227396 C 0.0 **** -0.24
262 H 38.84867050674063 7.958887944922282 6.280764970608914 H 0.0 **** 0.06
263 H 37.41799036597314 8.971219443050643 6.589002155588162 H 0.0 **** 0.06
264 H 37.23892141774428 7.210667516748231 6.403467564727066 H 0.0 **** 0.06
265 H 37.64740445071709 8.216555506614483 4.99345413931303 H 0.0 **** 0.06
266 C 56.36386917892111 98.4592648406919 52.24482155693398 C 0.0 **** -0.24
267 H 56.89213383792938 97.62505931386212 52.7070784976113 H 0.0 **** 0.06
268 H 55.533524309427946 98.07790131046565 51.65023166804936 H 0.0 **** 0.06
269 H 57.049292995729104 99.01051884997075 51.60185964389609 H 0.0 **** 0.06
270 H 55.981621023937976 99.12256549381402 53.021447278063064 H 0.0 **** 0.06
271 C 46.03643807531462 44.851460421779166 30.70393206686021 C 0.0 **** -0.24
272 H 45.37997694740324 44.388220310416614 29.967514225357668 H 0.0 **** 0.06
273 H 46.308373514209876 44.115603746528734 31.460806523640038 H 0.0 **** 0.06
274 H 45.5186350023744 45.685561545349515 31.177577673537677 H 0.0 **** 0.06
275 H 46.93659838119052 45.21601751243884 30.209504729195068 H 0.0 **** 0.06
276 C 76.45113782314687 84.93595316141523 32.87864437840105 C 0.0 **** -0.24
277 H 77.39730517058435 85.40304258922592 33.1499534760423 H 0.0 **** 0.06
278 H 75.6296667129023 85.60807710824827 33.12580719170222 H 0.0 **** 0.06
279 H 76.33593365631111 84.00249983542767 33.4294626304482 H 0.0 **** 0.06
280 H 76.44250338319532 84.72960517358575 31.807968955055003 H 0.0 **** 0.06
281 C 57.026412916174706 4.76545264493781 2.854407225931112 C 0.0 **** -0.24
282 H 56.445099039520954 5.503383346117346 2.301206231683622 H 0.0 **** 0.06
283 H 57.711584264059844 5.276308922230115 3.530787993338464 H 0.0 **** 0.06
284 H 57.594664980180575 4.151806891790727 2.1545219463322525 H 0.0 **** 0.06
285 H 56.352804404314455 4.129562709601856 3.4296319386183 H 0.0 **** 0.06
286 C 23.313855544491958 54.707208659316976 40.90596828224875 C 0.0 **** -0.24
287 H 23.292634488642108 55.72991299086004 41.28130591460905 H 0.0 **** 0.06
288 H 23.02945560033922 54.70068352608422 39.853109305986834 H 0.0 **** 0.06
289 H 22.612232319827854 54.097057996417426 41.476345325101704 H 0.0 **** 0.06
290 H 24.319109305004062 54.301083987998645 41.01294226441178 H 0.0 **** 0.06
291 C 97.4969306378627 93.41319126855885 96.38277209798379 C 0.0 **** -0.24
292 H 97.91878851374653 93.86165319017235 95.48321959290782 H 0.0 **** 0.06
293 H 97.45497327322357 92.33021398372327 96.26251948513055 H 0.0 **** 0.06
294 H 96.49020654490923 93.80087271239736 96.54255201667917 H 0.0 **** 0.06
295 H 98.12300675215425 93.66036189043808 97.23974305109908 H 0.0 **** 0.06
296 C 58.939162006193634 34.91872339719724 94.07713343169291 C 0.0 **** -0.24
297 H 58.40810210264508 35.55425953829092 94.78549706435916 H 0.0 **** 0.06
298 H 59.379090164193784 35.53645645771029 93.29444069053437 H 0.0 **** 0.06
299 H 58.24097433129065 34.20986271286216 93.63117110112455 H 0.0 **** 0.06
300 H 59.72765445290483 34.37428925889209 94.59686317017326 H 0.0 **** 0.06
301 C 32.9015131586666 91.65725856898518 19.8260784932191 C 0.0 **** -0.24
302 H 32.07930254117832 91.62407494922738 20.542463530753285 H 0.0 **** 0.06
303 H 33.512846295153935 92.53964990659227 20.01707907599172 H 0.0 **** 0.06
304 H 32.49913579380001 91.70489895198304 18.81408406450173 H 0.0 **** 0.06
305 H 33.512417255462594 90.76190654592632 19.93318458489417 H 0.0 **** 0.06
306 C 1.4675553071351715 55.55232014834138 80.72975913342182 C 0.0 **** -0.24
307 H 1.9643938130650014 54.59325815327571 80.87173232696122 H 0.0 **** 0.06
308 H 0.4121850199039585 55.38584553644128 80.51015789224527 H 0.0 **** 0.06
309 H 1.9318159722276107 56.08357335079975 79.89955682155875 H 0.0 **** 0.06
310 H 1.5593591946678487 56.14753145283996 81.63861525148909 H 0.0 **** 0.06
311 C 32.961647474877815 26.331049479683486 50.73516459904463 C 0.0 **** -0.24
312 H 32.29970294988861 27.18798473038163 50.60693306095615 H 0.0 **** 0.06
313 H 33.08512907797782 25.822446790088065 49.77842664166034 H 0.0 **** 0.06
314 H 32.52782226441814 25.642545751217312 51.45992948327761 H 0.0 **** 0.06
315 H 33.932629437350776 26.67310042269682 51.09342992957282 H 0.0 **** 0.06
316 C 4.273552581812043 72.6378086470691 68.908286942712 C 0.0 **** -0.24
317 H 3.9591386281942853 72.97715719873463 69.894837118612 H 0.0 **** 0.06
318 H 3.395512081834161 72.46664881198332 68.28592127111419 H 0.0 **** 0.06
319 H 4.8368925742356925 71.70939329363107 69.00635267812953 H 0.0 **** 0.06
320 H 4.904679797106166 73.39734265942707 68.4467217868391 H 0.0 **** 0.06
321 C 6.949498630374073 7.836667538558999 19.863051892938845 C 0.0 **** -0.24
322 H 5.893311065955107 7.574276740084642 19.922749071803945 H 0.0 **** 0.06
323 H 7.320195587820123 8.077579821624909 20.860521198113915 H 0.0 **** 0.06
324 H 7.073323632933349 8.700130713233506 19.210568555689935 H 0.0 **** 0.06
325 H 7.5107261319304985 6.9935342386125825 19.461282366908822 H 0.0 **** 0.06
326 C 78.49256298170054 20.967357435659437 53.20893872823692 C 0.0 **** -0.24
327 H 77.57422700656893 21.089936062676912 52.63542557254798 H 0.0 **** 0.06
328 H 79.34812307428386 20.98125299342101 52.53243167671046 H 0.0 **** 0.06
329 H 78.46447893320256 20.016597328964707 53.74054697810956 H 0.0 **** 0.06
330 H 78.58383071939936 21.78298556282354 53.92753034608691 H 0.0 **** 0.06
331 C 4.912156463546452 94.76026911188046 35.30960539038489 C 0.0 **** -0.24
332 H 5.178684520633695 94.60552324720771 34.26409672281429 H 0.0 **** 0.06
333 H 5.776435700593709 94.55156242116385 35.93959804713916 H 0.0 **** 0.06
334 H 4.094734787404462 94.09055524310142 35.57825951503122 H 0.0 **** 0.06
335 H 4.59686196332558 95.79450442028809 35.45441444898262 H 0.0 **** 0.06
336 C 39.91921129384494 84.91365271880488 71.54978518317891 C 0.0 **** -0.24
337 H 40.43236753689567 83.9915861292813 71.27445665316452 H 0.0 **** 0.06
338 H 39.11134371728731 84.68563169801917 72.24623642677528 H 0.0 **** 0.06
339 H 39.507889843979285 85.3813171779185 70.6557648055668 H 0.0 **** 0.06
340 H 40.62619990613486 85.59413039213916 72.02323216924967 H 0.0 **** 0.06
341 C 22.80684174364754 62.332170935803674 89.30206416788181 C 0.0 **** -0.24
342 H 23.4294587099333 61.70093923973522 88.66732598022924 H 0.0 **** 0.06
343 H 21.769581069775796 62.001846274589326 89.23719636447288 H 0.0 **** 0.06
344 H 22.880510111249464 63.36688136159634 88.96863182622116 H 0.0 **** 0.06
345 H 23.147754907454527 62.25815425634221 90.3339835119701 H 0.0 **** 0.06
346 C 82.46819546999393 10.678684974124025 71.69612376283317 C 0.0 **** -0.24
347 H 82.9538983444395 9.82603921531748 72.1712161927411 H 0.0 **** 0.06
348 H 82.79038092880904 10.74688999221587 70.65696329435912 H 0.0 **** 0.06
349 H 82.74293360057857 11.591935932823588 72.22315361783501 H 0.0 **** 0.06
350 H 81.38620319134571 10.546900281761708 71.73482053190122 H 0.0 **** 0.06
351 C 69.64546916527442 20.74548205830203 21.27472673149348 C 0.0 **** -0.24
352 H 68.69147326293415 20.852872398246944 20.758704457278068 H 0.0 **** 0.06
353 H 70.44535991031916 20.641149561705504 20.540374307454744 H 0.0 **** 0.06
354 H 69.61701521088176 19.859800966694877 21.909691498668597 H 0.0 **** 0.06
355 H 69.82717746216494 21.627076791328648 21.88808274731741 H 0.0 **** 0.06
356 C 69.01942147651974 9.150790989418482 78.42644038356309 C 0.0 **** -0.24
357 H 68.09473436998928 8.776824409680017 78.86477309120733 H 0.0 **** 0.06
358 H 69.7565893959432 9.306630442481094 79.21379631543633 H 0.0 **** 0.06
359 H 68.82501850066797 10.095801473872797 77.91814560196099 H 0.0 **** 0.06
360 H 69.40175595969072 8.424818694603886 77.70904410388584 H 0.0 **** 0.06
361 C 45.05439632908616 102.29394999162886 93.60004115279939 C 0.0 **** -0.24
362 H 45.57024572531526 101.44064269127792 94.03925165724306 H 0.0 **** 0.06
363 H 44.0050404129359 102.27325863200427 93.89241563954562 H 0.0 **** 0.06
364 H 45.13012022781646 102.24501807064861 92.5140340654722 H 0.0 **** 0.06
365 H 45.51344118146818 103.21742786223591 93.9547908852449 H 0.0 **** 0.06
366 C 81.73464482385646 18.851861661837404 37.46926558544078 C 0.0 **** -0.24
367 H 81.43841510410292 17.997529682319396 38.0787093749107 H 0.0 **** 0.06
368 H 80.84450417941616 19.35708031936568 37.0959526498651 H 0.0 **** 0.06
369 H 82.33752879844542 18.506948829936277 36.628463600255174 H 0.0 **** 0.06
370 H 82.31953828054264 19.544097801107 38.07484021391733 H 0.0 **** 0.06
371 C 38.44799472490499 47.606250535304646 56.80586712425597 C 0.0 **** -0.24
372 H 39.1323900557891 47.41422479556209 57.6321824441886 H 0.0 **** 0.06
373 H 37.440446131798225 47.75450411971482 57.194870450882405 H 0.0 **** 0.06
374 H 38.45454345745648 46.75532730583676 56.124014001303976 H 0.0 **** 0.06
375 H 38.767145209486316 48.50157488913294 56.271341927147375 H 0.0 **** 0.06
376 C 96.34974918048295 45.84452502398254 76.33367371470473 C 0.0 **** -0.24
377 H 96.14914694558252 45.49311803975296 75.32183839698126 H 0.0 **** 0.06
378 H 97.31383495203943 45.46004555875285 76.66724837170337 H 0.0 **** 0.06
379 H 95.56580609088547 45.48958860614755 77.0024025216054 H 0.0 **** 0.06
380 H 96.3699445248352 46.93410502835905 76.3425846138752 H 0.0 **** 0.06
381 C 65.69432367894912 53.783408011122305 39.649044595637974 C 0.0 **** -0.24
382 H 65.85268835037057 54.09237396279988 38.616426334942446 H 0.0 **** 0.06
383 H 64.62663231271918 53.79182122030349 39.870738712155685 H 0.0 **** 0.06
384 H 66.20989652503113 54.473420869175754 40.3179293545781 H 0.0 **** 0.06
385 H 66.08768723891292 52.776999392799326 39.7920224354863 H 0.0 **** 0.06
386 C 88.00112003448469 3.421505737871385 18.052549573164526 C 0.0 **** -0.24
387 H 88.98736288018766 3.615439945936629 18.473554807396226 H 0.0 **** 0.06
388 H 87.83279885731889 2.346801036084017 18.00165222435149 H 0.0 **** 0.06
389 H 87.94507859005546 3.8474400869993275 17.050100463448445 H 0.0 **** 0.06
390 H 87.24041843195427 3.8802865533738213 18.684664379948742 H 0.0 **** 0.06
391 C 93.79011201283825 81.99574963284448 59.731687421342485 C 0.0 **** -0.24
392 H 94.66844269533716 81.98232145559592 60.378392800385825 H 0.0 **** 0.06
393 H 94.10122390772287 82.1727957028678 58.70159810645589 H 0.0 **** 0.06
394 H 93.11686528026374 82.79045849748616 60.05042938202655 H 0.0 **** 0.06
395 H 93.27774288351314 81.03559847321839 59.796498798441576 H 0.0 **** 0.06
396 C 4.890288929162637 50.740747456259726 61.56507251489904 C 0.0 **** -0.24
397 H 5.209547208520206 50.13589504841076 60.715958498981365 H 0.0 **** 0.06
398 H 5.677044424693065 51.45048930521199 61.82100838048524 H 0.0 **** 0.06
399 H 4.693251073617148 50.093074070172065 62.41885239828429 H 0.0 **** 0.06
400 H 3.981726196544855 51.28312316532595 61.30365673656922 H 0.0 **** 0.06
401 C 90.21167047601989 80.07365717106208 66.4063535427257 C 0.0 **** -0.24
402 H 89.93814983708722 79.91892402614536 67.44999379169309 H 0.0 **** 0.06
403 H 89.86198253670108 79.2305238888984 65.8106308942726 H 0.0 **** 0.06
404 H 91.29502804054897 80.15403076238755 66.32338196752767 H 0.0 **** 0.06
405 H 89.75015207998484 80.99275902164999 66.04264690655845 H 0.0 **** 0.06
406 C 102.7252235490484 56.341632146985454 80.09152671377885 C 0.0 **** -0.24
407 H 102.37584514558381 57.18539690402406 79.49697680069585 H 0.0 **** 0.06
408 H 101.93716769878108 55.589695222888544 80.15225399569351 H 0.0 **** 0.06
409 H 102.97751643196904 56.68463205978979 81.09433086496205 H 0.0 **** 0.06
410 H 103.6079418088566 55.90664215911244 79.62222502530892 H 0.0 **** 0.06
411 C 26.822510307433248 37.949726958851386 29.96487159316149 C 0.0 **** -0.24
412 H 27.32090984972473 38.88394819979209 29.707070489050267 H 0.0 **** 0.06
413 H 27.464560401791317 37.1103467666224 29.69827560559426 H 0.0 **** 0.06
414 H 25.88213799951231 37.87718313726373 29.417951847147265 H 0.0 **** 0.06
415 H 26.621933080683334 37.92908153276039 31.036040769229942 H 0.0 **** 0.06
416 C 80.11233928619806 49.5047672770599 76.68497572297827 C 0.0 **** -0.24
417 H 79.97851054242227 48.54145067410161 77.17580643594658 H 0.0 **** 0.06
418 H 80.73546183889995 50.14573432262284 77.30764524326139 H 0.0 **** 0.06
419 H 79.1401278357743 49.97514446685591 76.53754756285736 H 0.0 **** 0.06
420 H 80.5942957333035 49.35665433120113 75.71864120651992 H 0.0 **** 0.06
421 C 48.618929069423395 7.873010993694887 89.26883902257373 C 0.0 **** -0.24
422 H 49.57384896666056 8.24540393474979 88.8976593335245 H 0.0 **** 0.06
423 H 48.66741307909547 6.7887710619086175 89.36954122086877 H 0.0 **** 0.06
424 H 47.828812633961356 8.137910058942161 88.56682383308984 H 0.0 **** 0.06
425 H 48.40781018083494 8.319615325734537 90.24090809962118 H 0.0 **** 0.06
426 C 75.66474642856484 82.47435596758493 103.75030797869181 C 0.0 **** -0.24
427 H 75.82412387495314 81.39682078865673 103.70936125809476 H 0.0 **** 0.06
428 H 75.11003424743362 82.72515959441398 104.65514877228986 H 0.0 **** 0.06
429 H 75.09570912762064 82.79015447996056 102.87641286509847 H 0.0 **** 0.06
430 H 76.6278035538256 82.98306641490672 103.76146292134149 H 0.0 **** 0.06
431 C 34.893775587476256 38.24380367715844 37.730478843209596 C 0.0 **** -0.24
432 H 33.80909074294422 38.27679814311682 37.82820791219973 H 0.0 **** 0.06
433 H 35.16935034921832 38.41527643501837 36.68937146924094 H 0.0 **** 0.06
434 H 35.257579443978415 37.26571272245923 38.0461934783026 H 0.0 **** 0.06
435 H 35.338518438883426 39.01745451408914 38.35575878255571 H 0.0 **** 0.06
436 C 68.11836494415098 32.97557937169191 59.29691394212671 C 0.0 **** -0.24
437 H 67.9895761626077 34.03293059783891 59.527449576972316 H 0.0 **** 0.06
438 H 67.89960467845208 32.80366345364013 58.24244782772436 H 0.0 **** 0.06
439 H 67.43689570506808 32.385299673176974 59.910336689783605 H 0.0 **** 0.06
440 H 69.14604409716202 32.68047987450791 59.50890618456924 H 0.0 **** 0.06
441 C 72.18965771773654 65.59334606823732 87.99951109004729 C 0.0 **** -0.24
442 H 72.0553928360736 66.67357293030068 88.04546408957535 H 0.0 **** 0.06
443 H 73.25529868456346 65.35982760832465 87.99795475359917 H 0.0 **** 0.06
444 H 71.73167442531043 65.20877765798627 87.08822008024316 H 0.0 **** 0.06
445 H 71.71763192269133 65.1301786339213 88.8661300678765 H 0.0 **** 0.06
446 C 95.81834802278344 54.66587727184768 86.20775878295319 C 0.0 **** -0.24
447 H 95.75430596925801 54.82981239006506 85.13227901445072 H 0.0 **** 0.06
448 H 96.76302335832307 55.06285584003456 86.58044957940575 H 0.0 **** 0.06
449 H 95.76504328142076 53.59699467283545 86.41616341622114 H 0.0 **** 0.06
450 H 94.9902598499585 55.1744521807461 86.70237929329045 H 0.0 **** 0.06
451 C 36.056601614442826 107.92930221846171 7.422647193522494 C 0.0 **** -0.24
452 H 34.96805836946962 107.98621204294047 7.45066113676927 H 0.0 **** 0.06
453 H 36.36274257719987 107.1840449096443 6.687995470159876 H 0.0 **** 0.06
454 H 36.431170464465254 107.6472116694991 8.405924821259987 H 0.0 **** 0.06
455 H 36.46228900773704 108.902098656058 7.144324167262994 H 0.0 **** 0.06
456 C 74.27279414542528 71.7029998003145 105.938181729373 C 0.0 **** -0.24
457 H 74.26212171769383 70.61502805303917 105.8707765996834 H 0.0 **** 0.06
458 H 73.38558623623382 72.10576917330468 105.44859836725048 H 0.0 **** 0.06
459 H 75.16542575384177 72.08896872883065 105.44659895177016 H 0.0 **** 0.06
460 H 74.27706394939382 72.00121462395407 106.98668807729743 H 0.0 **** 0.06
461 C 40.537393057178576 36.81236101525026 75.6573302501752 C 0.0 **** -0.24
462 H 39.73077912276855 37.28259357789176 76.21842924820382 H 0.0 **** 0.06
463 H 41.42878277573439 36.75467775511438 76.28225975915986 H 0.0 **** 0.06
464 H 40.75479476119811 37.40472188691981 74.7683004524403 H 0.0 **** 0.06
465 H 40.23581913455624 35.80818340238576 75.36001672014125 H 0.0 **** 0.06
466 C 19.50061807986816 1.2563938233820267 38.6952144694946 C 0.0 **** -0.24
467 H 20.321593786081053 1.0490597688962566 38.00834666827399 H 0.0 **** 0.06
468 H 18.888073663683087 2.0649121882167947 38.296136458458534 H 0.0 **** 0.06
469 H 19.90446914278732 1.5505453602737447 39.66414742536165 H 0.0 **** 0.06
470 H 18.89066553382486 0.3608125822159991 38.81294292276118 H 0.0 **** 0.06
471 C 62.45373124280434 92.1449242341141 60.33244536460809 C 0.0 **** -0.24
472 H 61.87089239283188 93.00115200481581 60.67229644087398 H 0.0 **** 0.06
473 H 63.213083678682835 92.48044473695988 59.625893350488525 H 0.0 **** 0.06
474 H 61.7947680409215 91.42737299645228 59.84520055467105 H 0.0 **** 0.06
475 H 62.93681736156526 91.67253664410633 61.18791461727223 H 0.0 **** 0.06
476 C 73.49162092049164 105.23528235401471 40.71717454681786 C 0.0 **** -0.24
477 H 73.00123848917838 104.62932896409706 39.95547748730095 H 0.0 **** 0.06
478 H 74.25070364149857 104.63810144914669 41.22354329512592 H 0.0 **** 0.06
479 H 72.7520166963921 105.57444131621628 41.44335959008791 H 0.0 **** 0.06
480 H 73.96228874396257 106.09876533134747 40.24715560200863 H 0.0 **** 0.06
481 C 76.59240994323152 29.455486198658107 0.37642345995679705 C 0.0 **** -0.24
482 H 76.56315803589946 30.545129796855093 0.3517242258887876 H 0.0 **** 0.06
483 H 76.23343736852172 29.105457767707037 1.344751244287039 H 0.0 **** 0.06
484 H 77.61656800719872 29.115962932041697 0.22300554880277446 H 0.0 **** 0.06
485 H 75.95482554548126 29.05798481981455 -0.412536359819498 H 0.0 **** 0.06
486 C 23.493987244876525 42.95322463331401 6.068310157880774 C 0.0 **** -0.24
487 H 24.459050835106027 42.52975887888317 5.790006571796027 H 0.0 **** 0.06
488 H 22.712311643610025 42.21163817015717 5.907336325220797 H 0.0 **** 0.06
489 H 23.29392231676392 43.832427145012986 5.457017460479165 H 0.0 **** 0.06
490 H 23.513703443812698 43.23977227114818 7.120010024424744 H 0.0 **** 0.06
491 C 89.5754290423672 29.69977231254631 26.25324083234682 C 0.0 **** -0.24
492 H 89.56003691433423 30.78918235584191 26.22889580063932 H 0.0 **** 0.06
493 H 90.60471069249553 29.349281969798803 26.16328651434526 H 0.0 **** 0.06
494 H 88.98463077279024 29.30918687741702 25.423978302144803 H 0.0 **** 0.06
495 H 89.15452308062564 29.351232569361194 27.19571524713777 H 0.0 **** 0.06
496 C 87.43135440446395 48.15245223719966 93.67173662128194 C 0.0 **** -0.24
497 H 88.00710986926464 48.79859563115051 94.3346123541836 H 0.0 **** 0.06
498 H 87.30205438100182 48.64448557070521 92.70792930235567 H 0.0 **** 0.06
499 H 86.45488376786642 47.956167278921896 94.11381935393217 H 0.0 **** 0.06
500 H 87.9622072075598 47.21043299670051 93.53111671256907 H 0.0 **** 0.06
501 C 3.8601981580865896 68.7112640520478 1.073028754733926 C 0.0 **** -0.24
502 H 4.200442420083732 67.94705519472302 1.7714222682862442 H 0.0 **** 0.06
503 H 3.4226499467206537 68.23330842032578 0.19671726572582315 H 0.0 **** 0.06
504 H 4.706555872002696 69.32704549962102 0.7674412364000887 H 0.0 **** 0.06
505 H 3.1113047220045047 69.33826040860788 1.557307675271474 H 0.0 **** 0.06
506 C 87.3865039868482 39.65865463587635 107.63395645293383 C 0.0 **** -0.24
507 H 88.42226332395451 39.960547014383096 107.47827262505302 H 0.0 **** 0.06
508 H 87.35990608680173 38.747140642082485 108.23140743376331 H 0.0 **** 0.06
509 H 86.9129663606173 39.47507007947903 106.66975747623661 H 0.0 **** 0.06
510 H 86.85184418461617 40.45194620760917 108.1566401572162 H 0.0 **** 0.06
511 C 51.928083317258285 32.49041836143044 96.19884473215382 C 0.0 **** -0.24
512 H 50.99472343771322 32.94895360486123 95.87109381231807 H 0.0 **** 0.06
513 H 52.746775482625736 32.841629497766235 95.56999197757388 H 0.0 **** 0.06
514 H 51.84719026938643 31.40686482376242 96.11887063698079 H 0.0 **** 0.06
515 H 52.1224519327819 32.76498628845712 97.23541172712177 H 0.0 **** 0.06
516 C 81.46655088673552 33.761852392122435 107.5456834600109 C 0.0 **** -0.24
517 H 81.4045703236851 33.02749710160268 108.34868007987995 H 0.0 **** 0.06
518 H 82.36655904441739 34.36452806145951 107.67475439276885 H 0.0 **** 0.06
519 H 80.58901389682438 34.40782238606791 107.5754066496246 H 0.0 **** 0.06
520 H 81.50862170130074 33.248151296796195 106.58533920636799 H 0.0 **** 0.06
521 C 95.45930775043587 70.2082132689577 71.1930976095822 C 0.0 **** -0.24
522 H 94.38175181740428 70.13043587461217 71.04740352483492 H 0.0 **** 0.06
523 H 95.97218072410641 69.6306858029939 70.42445193886834 H 0.0 **** 0.06
524 H 95.72147765780588 69.8173428724503 72.17711652227166 H 0.0 **** 0.06
525 H 95.75999314877569 71.25322166556731 71.12549175052482 H 0.0 **** 0.06
526 C 15.490635142503656 54.076655376450475 95.01440023402733 C 0.0 **** -0.24
527 H 15.716114810325859 53.033969522824236 94.79153486294757 H 0.0 **** 0.06
528 H 14.812309907058122 54.47082339606112 94.25757837979342 H 0.0 **** 0.06
529 H 16.41364097327405 54.656455129267925 95.01208791027322 H 0.0 **** 0.06
530 H 15.020811257094937 54.1461996446194 95.99530234781231 H 0.0 **** 0.06
531 C 55.57828160646693 102.57651870115207 11.226603352073198 C 0.0 **** -0.24
532 H 55.20992257099712 101.70130341302634 10.692010373348182 H 0.0 **** 0.06
533 H 54.94782127695049 103.43527558022576 10.994490675932212 H 0.0 **** 0.06
534 H 56.60369033093005 102.78416639170891 10.921527582130096 H 0.0 **** 0.06
535 H 55.55000343974535 102.38445385257327 12.2995601747389 H 0.0 **** 0.06
536 C 81.52697580654052 50.45764496097297 29.17712650432125 C 0.0 **** -0.24
537 H 82.54019225508392 50.622180605366765 28.81019691424075 H 0.0 **** 0.06
538 H 80.86391754511334 51.22001256905074 28.766207637841518 H 0.0 **** 0.06
539 H 81.52066502580786 50.51981528919313 30.265710413886183 H 0.0 **** 0.06
540 H 81.18441974916067 49.47118537049758 28.8670981006903 H 0.0 **** 0.06
541 C 12.851411667806449 56.502643901879026 34.83607947291708 C 0.0 **** -0.24
542 H 12.102962615820847 57.293089732577755 34.785887453765014 H 0.0 **** 0.06
543 H 12.630992890240368 55.84564727728031 35.67787927003077 H 0.0 **** 0.06
544 H 13.838189815687983 56.94652326425694 34.969825085449145 H 0.0 **** 0.06
545 H 12.83442776223582 55.92757028747451 33.91048683609395 H 0.0 **** 0.06
546 C 78.92900465540205 78.85171504380165 47.22035550050538 C 0.0 **** -0.24
547 H 78.50501071161294 78.32409209407302 48.07420500595157 H 0.0 **** 0.06
548 H 79.05413881962947 79.9054827411964 47.470701214812266 H 0.0 **** 0.06
549 H 78.25829812769476 78.75741736953928 46.36611865784624 H 0.0 **** 0.06
550 H 79.89821626838068 78.41934370534916 46.97117132471948 H 0.0 **** 0.06
551 C 16.51420908440059 34.162726626460696 106.53286681525441 C 0.0 **** -0.24
552 H 15.999173347821909 34.313404546541136 105.58447017668206 H 0.0 **** 0.06
553 H 16.636108370177453 35.12209962964583 107.03610819700097 H 0.0 **** 0.06
554 H 17.49418130887659 33.722392838927206 106.34800883335714 H 0.0 **** 0.06
555 H 15.927688601190596 33.493952236072005 107.16277109211805 H 0.0 **** 0.06
556 C 26.529332481785104 14.93655753028223 98.34524664139505 C 0.0 **** -0.24
557 H 26.960245998051306 14.206338814391529 99.02957623137006 H 0.0 **** 0.06
558 H 26.467707999075486 15.90569843873828 98.83890352422037 H 0.0 **** 0.06
559 H 25.530155744177222 14.61259284615802 98.0517391274367 H 0.0 **** 0.06
560 H 27.159692712048866 15.019256213252362 97.45895557709407 H 0.0 **** 0.06
561 C 64.28805083373106 4.140961574969083 82.49700651559644 C 0.0 **** -0.24
562 H 63.25867636391314 4.45596245464246 82.3254620080533 H 0.0 **** 0.06
563 H 64.93661457130924 4.592849832460928 81.74622694444655 H 0.0 **** 0.06
564 H 64.35219174158635 3.055651795049684 82.42657617509151 H 0.0 **** 0.06
565 H 64.60456729991284 4.459997466620692 83.49053423913405 H 0.0 **** 0.06
566 C 2.5597639689697047 1.456277261285436 79.54294271112116 C 0.0 **** -0.24
567 H 2.1878872291025715 0.6311831660768803 78.93672887781374 H 0.0 **** 0.06
568 H 3.3226149165292753 2.0017787227593544 78.9857582326129 H 0.0 **** 0.06
569 H 2.992733669916433 1.0641200345800712 80.46282410440415 H 0.0 **** 0.06
570 H 1.73657034792555 2.129186282907426 79.78615383074646 H 0.0 **** 0.06
571 C 48.33314218642826 65.98123366707449 48.6221571425042 C 0.0 **** -0.24
572 H 47.90040042743891 65.89350284497198 47.62591886577305 H 0.0 **** 0.06
573 H 48.9022144105482 66.90854390005677 48.690035057740644 H 0.0 **** 0.06
574 H 48.99296700957427 65.13400789013252 48.80857210832501 H 0.0 **** 0.06
575 H 47.53527211835984 65.98971991717895 49.36526631341166 H 0.0 **** 0.06
576 C 69.8013814818986 2.629556043289057 71.92772474421542 C 0.0 **** -0.24
577 H 69.83962991075406 3.6846342321479284 71.65928505347631 H 0.0 **** 0.06
578 H 69.2175067735618 2.506870655700695 72.8407294293815 H 0.0 **** 0.06
579 H 70.81406383939729 2.2593283762072076 72.09143743386096 H 0.0 **** 0.06
580 H 69.33525458409953 2.0663338242656977 71.11958596610708 H 0.0 **** 0.06
581 C 103.75163703483089 51.442199135770004 15.017445018654655 C 0.0 **** -0.24
582 H 104.66931118188602 51.68300759742846 14.479960737386364 H 0.0 **** 0.06
583 H 103.57727495041469 52.19046758016508 15.790385536580402 H 0.0 **** 0.06
584 H 103.84792851655912 50.45885365398857 15.477205231618427 H 0.0 **** 0.06
585 H 102.914053895918 51.436536440139 14.320845263046294 H 0.0 **** 0.06
586 C 47.90829884664828 2.305962721240917 106.21671610322039 C 0.0 **** -0.24
587 H 47.26383528852951 3.1306153094196816 106.52261598369853 H 0.0 **** 0.06
588 H 48.2228108046164 2.4535622409446205 105.18459577688176 H 0.0 **** 0.06
589 H 47.36011981445535 1.3671292633448502 106.30040833989823 H 0.0 **** 0.06
590 H 48.78494436838238 2.272813762724695 106.86357129211923 H 0.0 **** 0.06
591 C 12.752261060483988 10.872070864785798 79.07227085217323 C 0.0 **** -0.24
592 H 11.764614086327214 10.439052035307895 78.90994996500069 H 0.0 **** 0.06
593 H 13.304337779437702 10.260293325049332 79.78495124735355 H 0.0 **** 0.06
594 H 12.645637872997412 11.882909022769383 79.46513921196225 H 0.0 **** 0.06
595 H 13.293809642156702 10.905429456498297 78.12617504842535 H 0.0 **** 0.06
596 C 89.5794972618962 8.714463264334176 25.6321813898104 C 0.0 **** -0.24
597 H 89.8960232246288 9.354241565485074 24.808201462423938 H 0.0 **** 0.06
598 H 88.56701047504075 8.985168076031092 25.933208499133173 H 0.0 **** 0.06
599 H 90.2574286763431 8.84715746561266 26.475663539739912 H 0.0 **** 0.06
600 H 89.59822069880505 7.6733970682539 25.31140355335947 H 0.0 **** 0.06
601 C 69.41576177850214 28.86859952289535 30.52294113103728 C 0.0 **** -0.24
602 H 69.30778448935956 29.47389595577806 31.423489321112307 H 0.0 **** 0.06
603 H 69.55923990733982 29.521267764708057 29.66189116188098 H 0.0 **** 0.06
604 H 68.51668907378007 28.269478810995707 30.378942856442173 H 0.0 **** 0.06
605 H 70.27810946175703 28.210858793930242 30.62895264157219 H 0.0 **** 0.06
606 C 74.45452038562918 30.106914096497945 14.88725668608777 C 0.0 **** -0.24
607 H 74.74785230430619 30.08761167194868 15.937268451145865 H 0.0 **** 0.06
608 H 73.47146234787229 30.566764858283705 14.79324623283712 H 0.0 **** 0.06
609 H 74.41793321350981 29.087679653453904 14.502929505814315 H 0.0 **** 0.06
610 H 75.1830877089697 30.684209238222394 14.317578826838183 H 0.0 **** 0.06
611 C 40.62264080750786 102.75567207308588 91.10619369370173 C 0.0 **** -0.24
612 H 41.03575866235941 103.63649984672502 90.61595204614338 H 0.0 **** 0.06
613 H 39.561182958028105 102.67372767008386 90.87319542809053 H 0.0 **** 0.06
614 H 40.751200598191694 102.84718255711128 92.18582844410969 H 0.0 **** 0.06
615 H 41.143233743586926 101.86609662268633 90.75375745763421 H 0.0 **** 0.06
616 C 8.17745710404904 82.60082072634881 107.7912542291784 C 0.0 **** -0.24
617 H 7.365373864142839 82.03274183204707 107.33883187781217 H 0.0 **** 0.06
618 H 8.732065028434533 81.95864536886003 108.47605694891882 H 0.0 **** 0.06
619 H 7.765571608361881 83.44807663886473 108.34094568562872 H 0.0 **** 0.06
620 H 8.845286936971434 82.96482340132552 107.0104660176213 H 0.0 **** 0.06
621 C 76.53766456812878 94.62571118892407 34.88565408763898 C 0.0 **** -0.24
622 H 76.97804412318459 93.82233839952842 34.296578722900676 H 0.0 **** 0.06
623 H 76.77669423282774 94.47653155303307 35.939203887653406 H 0.0 **** 0.06
624 H 75.45552467494866 94.62042193538771 34.754276200462726 H 0.0 **** 0.06
625 H 76.93909048879749 95.58341624435417 34.553688513867684 H 0.0 **** 0.06
626 C 59.84776772190793 44.30649781393524 61.44077305264955 C 0.0 **** -0.24
627 H 60.72171035708621 43.67212247426832 61.29489285602199 H 0.0 **** 0.06
628 H 58.95097199178832 43.76318023128272 61.14114938691671 H 0.0 **** 0.06
629 H 59.946784259035695 45.20660977757868 60.83316866208082 H 0.0 **** 0.06
630 H 59.7714729629987 44.58380253300524 62.491450926004035 H 0.0 **** 0.06
631 C 11.642000875340514 61.247210050899994 71.20810037729294 C 0.0 **** -0.24
632 H 12.22853217760317 61.51418523193452 70.32876473688876 H 0.0 **** 0.06
633 H 10.6721485108488 60.85966454340881 70.89209901518893 H 0.0 **** 0.06
634 H 11.494834717225075 62.1310275540158 71.82866592261125 H 0.0 **** 0.06
635 H 12.170407911502295 60.484947153159965 71.77945059624737 H 0.0 **** 0.06
636 C 104.74570227514994 68.66602494990049 83.04853424620148 C 0.0 **** -0.24
637 H 105.11032577459851 69.16855552086886 82.15315971749362 H 0.0 **** 0.06
638 H 105.57485660195375 68.5057338601386 83.7378453109448 H 0.0 **** 0.06
639 H 104.3092562421948 67.70592293856376 82.7741133541796 H 0.0 **** 0.06
640 H 103.98763654918147 69.28599770216944 83.52911108511734 H 0.0 **** 0.06
641 C 37.84448194133603 3.8115212739587516 6.719581549578278 C 0.0 **** -0.24
642 H 37.43757060451583 4.239770627115972 7.636106815423444 H 0.0 **** 0.06
643 H 38.07270093112538 4.61127878883652 6.015357260086482 H 0.0 **** 0.06
644 H 37.112251835260224 3.135261310448609 6.278828353937927 H 0.0 **** 0.06
645 H 38.755480410418386 3.258537028291409 6.950765737822582 H 0.0 **** 0.06
646 C 36.111871913299865 87.75093784942105 44.72202735047233 C 0.0 **** -0.24
647 H 36.12250110586845 86.66103822711959 44.702160013159244 H 0.0 **** 0.06
648 H 35.87592474863186 88.09424850961125 45.729236655695956 H 0.0 **** 0.06
649 H 35.35851248402827 88.11981242810991 44.02594834564968 H 0.0 **** 0.06
650 H 37.09177136714297 88.12927061816559 44.42930686018596 H 0.0 **** 0.06
651 C 79.69379377132196 43.21342107349664 94.63267066569674 C 0.0 **** -0.24
652 H 78.7490594580079 42.78899100487014 94.29276470480761 H 0.0 **** 0.06
653 H 79.8513942223507 42.95407478697177 95.67971721662622 H 0.0 **** 0.06
654 H 79.66520005217546 44.29707336859255 94.52631332877952 H 0.0 **** 0.06
655 H 80.50901904964124 42.80986617193822 94.0314252149158 H 0.0 **** 0.06
656 C 67.32109702034123 8.71666527315486 30.831040645763792 C 0.0 **** -0.24
657 H 67.876574453456 8.2418463684958 31.640136881869935 H 0.0 **** 0.06
658 H 67.47261793343719 9.79610079068685 30.870363897989947 H 0.0 **** 0.06
659 H 66.25961167611285 8.494436640880522 30.940087234973078 H 0.0 **** 0.06
660 H 67.67558401835892 8.334277292556408 29.873574568222182 H 0.0 **** 0.06
661 C 27.63256958726609 56.01462323582558 87.14854050114229 C 0.0 **** -0.24
662 H 27.17174576443736 55.85377851813024 86.17358497528429 H 0.0 **** 0.06
663 H 28.567420238549857 56.56308378020282 87.02231339437509 H 0.0 **** 0.06
664 H 27.836390045019556 55.051850464967174 87.61709644431478 H 0.0 **** 0.06
665 H 26.955908638279908 56.59050883231828 87.77915175836449 H 0.0 **** 0.06
666 C 44.360538311858875 59.583568575730936 53.57086417889926 C 0.0 **** -0.24
667 H 44.89881999192576 59.08284859128179 54.37615309338253 H 0.0 **** 0.06
668 H 44.86368892526582 59.39072469484125 52.62294456167456 H 0.0 **** 0.06
669 H 44.34079490491959 60.65677679351231 53.76037719013809 H 0.0 **** 0.06
670 H 43.340006747030515 59.20334450768448 53.524551638231685 H 0.0 **** 0.06
671 C 69.19920769254404 51.10532902414363 18.753461745222967 C 0.0 **** -0.24
672 H 70.06556971701968 51.72627889520771 18.98116101809065 H 0.0 **** 0.06
673 H 68.58443933461609 51.60043722739678 18.002247021270733 H 0.0 **** 0.06
674 H 68.61278098728519 50.952951037047455 19.659943718309208 H 0.0 **** 0.06
675 H 69.53382181838379 50.1409577472719 18.371183978307293 H 0.0 **** 0.06
676 C 32.44321213411865 77.5431569807007 30.403589481502678 C 0.0 **** -0.24
677 H 32.840801394555 78.47324547346557 30.810106459717986 H 0.0 **** 0.06
678 H 32.47602128313946 76.76817611412167 31.16892669171719 H 0.0 **** 0.06
679 H 33.043568290666826 77.23462279720391 29.547168408335153 H 0.0 **** 0.06
680 H 31.41174517562635 77.69783314032131 30.08644428016072 H 0.0 **** 0.06
681 C 35.175427941802894 30.44837199604983 108.5193355850808 C 0.0 **** -0.24
682 H 36.107525935677316 30.524336190480454 109.07959592854783 H 0.0 **** 0.06
683 H 34.36945102092547 30.908576598450352 109.09200115173621 H 0.0 **** 0.06
684 H 34.94216785484595 29.39815764402627 108.34314130325521 H 0.0 **** 0.06
685 H 35.28224808649006 30.962541925066006 107.56397616399585 H 0.0 **** 0.06
686 C 52.05693644992754 87.26159942271114 6.755082447567645 C 0.0 **** -0.24
687 H 52.468243727658184 87.93545525965682 6.003185830689404 H 0.0 **** 0.06
688 H 51.01696612164938 87.52610332607257 6.949670030124423 H 0.0 **** 0.06
689 H 52.63214132500122 87.3494324970207 7.676555477849604 H 0.0 **** 0.06
690 H 52.10835141646898 86.23573268364206 6.390070383374194 H 0.0 **** 0.06
691 C 66.36710296330898 5.704332692659648 64.96662767557932 C 0.0 **** -0.24
692 H 67.20563072336967 6.376279782134475 65.15058198140319 H 0.0 **** 0.06
693 H 65.44532404730856 6.2821563307030885 64.90449634133292 H 0.0 **** 0.06
694 H 66.29190943774773 4.984843935784653 65.78271945123272 H 0.0 **** 0.06
695 H 66.52709803224863 5.172581274349028 64.02805166435107 H 0.0 **** 0.06
696 C 35.20016764273444 78.54300058645066 88.15954573231824 C 0.0 **** -0.24
697 H 34.59286650046988 79.42673518342389 88.35427459289086 H 0.0 **** 0.06
698 H 36.15124929496395 78.63435283488738 88.68493926322454 H 0.0 **** 0.06
699 H 35.382069652282325 78.45654929876868 87.0888400579412 H 0.0 **** 0.06
700 H 34.673859387128005 77.656308979142 88.51254355587069 H 0.0 **** 0.06
701 C 3.5881473641972743 86.42368684552596 24.327242025771795 C 0.0 **** -0.24
702 H 3.787929016747155 86.66373572554721 25.370842819810434 H 0.0 **** 0.06
703 H 4.498646947197296 86.04853496676012 23.859164599134317 H 0.0 **** 0.06
704 H 3.255370021997898 87.32093956956771 23.80544354764163 H 0.0 **** 0.06
705 H 2.8103992438800214 85.66177023274031 24.272143778995257 H 0.0 **** 0.06
706 C 34.23251028964495 13.79100258072718 73.73335010327946 C 0.0 **** -0.24
707 H 35.13241075319331 14.164776958898472 73.2436228367259 H 0.0 **** 0.06
708 H 34.443341843620715 12.823950895548379 74.1898202035974 H 0.0 **** 0.06
709 H 33.43822297760306 13.67945964134283 72.99440439148837 H 0.0 **** 0.06
710 H 33.91797605998045 14.495823861135023 74.50249508575747 H 0.0 **** 0.06
711 C 86.51709701505945 8.5749138689727 19.43764603676678 C 0.0 **** -0.24
712 H 85.63000537742039 9.088423902618162 19.06628670083859 H 0.0 **** 0.06
713 H 87.04026364836096 9.219836741441288 20.144361024491673 H 0.0 **** 0.06
714 H 87.177162737824 8.341082080661117 18.601792075245072 H 0.0 **** 0.06
715 H 86.22188130864782 7.652986594614335 19.93673175685845 H 0.0 **** 0.06
716 C 85.89738789813771 34.33062472773139 32.384885400702274 C 0.0 **** -0.24
717 H 86.36263948561144 34.74092891457144 33.28094526454049 H 0.0 **** 0.06
718 H 86.63241361975686 33.74773886551657 31.828107870159556 H 0.0 **** 0.06
719 H 85.53148459373958 35.144797714820555 31.760006260895068 H 0.0 **** 0.06
720 H 85.06435301505304 33.68776467189306 32.66970939427051 H 0.0 **** 0.06
721 C 77.09064550024989 108.87539793719392 79.40958762453526 C 0.0 **** -0.24
722 H 77.66940833235925 108.17711640143622 80.01471436828223 H 0.0 **** 0.06
723 H 76.30617528651078 108.33360450453773 78.88010553607563 H 0.0 **** 0.06
724 H 77.74835227675301 109.36181287852202 78.687802846492 H 0.0 **** 0.06
725 H 76.6408641027205 109.62934201565544 80.05572065285364 H 0.0 **** 0.06
726 C 20.83160398635897 81.6991686596416 76.99837364062205 C 0.0 **** -0.24
727 H 21.621935726450943 81.91323748996575 77.71826541659836 H 0.0 **** 0.06
728 H 21.10002432063726 82.12092023787704 76.02905632262576 H 0.0 **** 0.06
729 H 19.897163118155902 82.14327171295344 77.34199061328088 H 0.0 **** 0.06
730 H 20.708517671742925 80.62040745742007 76.90379628015336 H 0.0 **** 0.06
731 C 49.83456641099869 107.2736754928582 95.99957591758984 C 0.0 **** -0.24
732 H 49.718898706853466 108.27845676746232 96.40670791877858 H 0.0 **** 0.06
733 H 49.9403313286683 107.33123569166949 94.91617687915348 H 0.0 **** 0.06
734 H 48.9558302224821 106.67821338511808 96.24825739451026 H 0.0 **** 0.06
735 H 50.72219508728731 106.80862917990754 96.42794853698028 H 0.0 **** 0.06
736 C 50.269528489120205 60.98949337142827 92.67843000605076 C 0.0 **** -0.24
737 H 49.5238684247019 60.20977388245831 92.8345308128889 H 0.0 **** 0.06
738 H 50.10092399564792 61.46359333392215 91.71027209855602 H 0.0 **** 0.06
739 H 51.266027684115215 60.54868125843524 92.69937951718356 H 0.0 **** 0.06
740 H 50.18483089661737 61.735872652663744 93.46782541706816 H 0.0 **** 0.06
741 C 40.497659031055406 91.50785889990482 97.92170357566482 C 0.0 **** -0.24
742 H 40.92782134544919 92.50096496889489 97.78884792344905 H 0.0 **** 0.06
743 H 41.278231900583165 90.75587059539298 97.80570161351284 H 0.0 **** 0.06
744 H 39.721005498638405 91.34549966180015 97.17345983396811 H 0.0 **** 0.06
745 H 40.062774919505216 91.43104244918531 98.91804030910211 H 0.0 **** 0.06
746 C 11.177026536106343 73.06053843920802 33.57131953375932 C 0.0 **** -0.24
747 H 10.879795381381772 73.74413122481991 32.77529725603853 H 0.0 **** 0.06
748 H 11.117332840056573 72.03405783529513 33.20905290042424 H 0.0 **** 0.06
749 H 10.511154552989566 73.18516256471139 34.42485052882975 H 0.0 **** 0.06
750 H 12.201028853572819 73.27958057061124 33.873639984040835 H 0.0 **** 0.06
751 C 13.2084321092957 19.370531273088506 29.694337363419095 C 0.0 **** -0.24
752 H 12.37862786411688 20.00926367261979 29.390602718043596 H 0.0 **** 0.06
753 H 12.916558029333231 18.785849832159858 30.567402112445734 H 0.0 **** 0.06
754 H 14.071420719356738 19.98886826836431 29.942171789583426 H 0.0 **** 0.06
755 H 13.467037180168646 18.697488040540495 28.87557171091538 H 0.0 **** 0.06
756 C 11.040688742377398 97.99959051775032 69.15729191492414 C 0.0 **** -0.24
757 H 11.222712659501667 96.9812155407601 68.81544470856215 H 0.0 **** 0.06
758 H 10.337085274883236 98.4883954050768 68.48253798616929 H 0.0 **** 0.06
759 H 11.979847464074481 98.55289188854165 69.16608729026808 H 0.0 **** 0.06
760 H 10.622790972775135 97.97515692557992 70.16325228787488 H 0.0 **** 0.06
761 C 6.259624123776234 57.74050752360091 6.678386746089217 C 0.0 **** -0.24
762 H 7.074066071823722 58.44878708152669 6.523766944380171 H 0.0 **** 0.06
763 H 5.569255065726125 58.13941403686334 7.421728545080001 H 0.0 **** 0.06
764 H 6.665287577046712 56.792416185612694 7.030147737292097 H 0.0 **** 0.06
765 H 5.731691516514303 57.58419565713683 5.737851468388314 H 0.0 **** 0.06
766 C 0.06114032328953023 100.64933524936392 9.49614664236148 C 0.0 **** -0.24
767 H 0.5284916178169539 101.44140858305418 10.08078964474339 H 0.0 **** 0.06
768 H -0.6067076531302709 100.07041044935512 10.135533155488531 H 0.0 **** 0.06
769 H 0.8311752827467345 99.99511797579618 9.088563849861515 H 0.0 **** 0.06
770 H -0.5104628665217765 101.09039596414163 8.67884182801501 H 0.0 **** 0.06
771 C 38.176403541930924 10.651652722325508 79.96316398380993 C 0.0 **** -0.24
772 H 37.69468412643553 9.676283533090839 80.04183600139585 H 0.0 **** 0.06
773 H 37.415871091758575 11.432878395228244 79.9644809496347 H 0.0 **** 0.06
774 H 38.7471279469239 10.700461137250898 79.03631167140949 H 0.0 **** 0.06
775 H 38.84737968379919 10.794849109845813 80.81037688141593 H 0.0 **** 0.06
776 C 89.07349969459995 74.77130750283987 107.32269560474415 C 0.0 **** -0.24
777 H 88.03277215127605 75.0909007229011 107.358208122652 H 0.0 **** 0.06
778 H 89.11767376654075 73.68868272472895 107.20631657644051 H 0.0 **** 0.06
779 H 89.57245016992067 75.05827329450898 108.2488937328551 H 0.0 **** 0.06
780 H 89.57209124988174 75.24866813456975 106.47919329609923 H 0.0 **** 0.06
781 C 18.961256469061926 65.70808855064644 104.980734781183 C 0.0 **** -0.24
782 H 19.375897009356702 66.40751889754017 104.25514588169449 H 0.0 **** 0.06
783 H 18.720479042702905 66.23923522766125 105.90184407063029 H 0.0 **** 0.06
784 H 19.692962827418732 64.92792652952534 105.1916871723464 H 0.0 **** 0.06
785 H 18.056142940295437 65.25709111972759 104.57358899001713 H 0.0 **** 0.06
786 C 65.33783586962164 27.73640391950712 28.40358391535679 C 0.0 **** -0.24
787 H 66.30078843714944 27.887482014745494 28.891117103684792 H 0.0 **** 0.06
788 H 64.6619180590103 27.220909810734426 29.086747775912784 H 0.0 **** 0.06
789 H 65.47582243122702 27.135432142422786 27.50549849123476 H 0.0 **** 0.06
790 H 64.91279623844895 28.703499565142863 28.13241560054763 H 0.0 **** 0.06
791 C 3.6888700280985063 81.75808350906887 17.485932172926027 C 0.0 **** -0.24
792 H 4.066018211856374 82.53191080199962 16.817762732083423 H 0.0 **** 0.06
793 H 2.996971998833672 81.11466621907788 16.943169672744546 H 0.0 **** 0.06
794 H 3.171341025571124 82.2227054463933 18.325347482172162 H 0.0 **** 0.06
795 H 4.523036312892387 81.16303512493232 17.858647787527076 H 0.0 **** 0.06
796 C 36.06953893019369 42.22115959669088 70.30841723854036 C 0.0 **** -0.24
797 H 35.43321350636657 42.46614416296967 69.4575133524674 H 0.0 **** 0.06
798 H 36.03080206078144 43.03329083603015 71.03497570838573 H 0.0 **** 0.06
799 H 37.095975721410326 42.088027576444944 69.96644611547836 H 0.0 **** 0.06
800 H 35.718545195318626 41.29971266978677 70.77263141877762 H 0.0 **** 0.06
801 C 86.44652568942087 28.116290505012074 23.222835429247112 C 0.0 **** -0.24
802 H 86.22418285402807 28.320973143626134 24.270308849245737 H 0.0 **** 0.06
803 H 87.520748312232 27.981462952513766 23.098351986204307 H 0.0 **** 0.06
804 H 86.11101406423586 28.953368008783173 22.610066225060308 H 0.0 **** 0.06
805 H 85.92776498559539 27.20933833035531 22.912089624626873 H 0.0 **** 0.06
806 C 59.027230620206524 82.47181092406052 49.83877739552486 C 0.0 **** -0.24
807 H 58.489055381155026 81.56952846947675 50.128464512722815 H 0.0 **** 0.06
808 H 60.09637331599998 82.26194493328755 49.80451321210103 H 0.0 **** 0.06
809 H 58.83525167920095 83.25925988654443 50.56781724168832 H 0.0 **** 0.06
810 H 58.688354668285854 82.79669573741303 48.85529084893392 H 0.0 **** 0.06
811 C 39.64609879357067 14.005021789792458 99.31256800893523 C 0.0 **** -0.24
812 H 39.99183027234719 13.26642331899129 98.58952797264426 H 0.0 **** 0.06
813 H 39.13752189461354 13.499373233305466 100.13340473969764 H 0.0 **** 0.06
814 H 38.954809065286156 14.694198187145894 98.82685687991875 H 0.0 **** 0.06
815 H 40.50040520206869 14.561011713946314 99.70083686933485 H 0.0 **** 0.06
816 C 77.16640498422214 76.2808475224499 12.498791278012757 C 0.0 **** -0.24
817 H 78.24731495039362 76.1466266447373 12.524446914799633 H 0.0 **** 0.06
818 H 76.73244846937729 75.59823514435163 11.76680627420896 H 0.0 **** 0.06
819 H 76.9347650965164 77.30886121210267 12.219404985188863 H 0.0 **** 0.06
820 H 76.750088274029 76.06928778102213 13.483585025817163 H 0.0 **** 0.06
821 C 29.056775597346416 26.9371258994895 89.58674993150467 C 0.0 **** -0.24
822 H 29.590711129373545 27.88415036617232 89.66582821613505 H 0.0 **** 0.06
823 H 28.81579645360719 26.742547885900677 88.54220110148097 H 0.0 **** 0.06
824 H 28.13659733393257 26.98989148754879 90.1687805389302 H 0.0 **** 0.06
825 H 29.684017325694157 26.132974546493415 89.97112509435249 H 0.0 **** 0.06
826 C 103.13499774386248 36.444244994870104 27.108849148666934 C 0.0 **** -0.24
827 H 103.51606861204499 37.32927138596895 26.598876437216802 H 0.0 **** 0.06
828 H 102.57538961011664 36.74893594262153 27.993207687727875 H 0.0 **** 0.06
829 H 103.96977139441722 35.80988034654251 27.407347593757436 H 0.0 **** 0.06
830 H 102.47989251187425 35.892005388796434 26.43579241406519 H 0.0 **** 0.06
831 C 84.21295563019416 3.353196947806845 41.02219503132807 C 0.0 **** -0.24
832 H 84.08497595295894 2.4356033424071795 40.44683157649712 H 0.0 **** 0.06
833 H 83.44481227013253 4.071373440762935 40.73677757184407 H 0.0 **** 0.06
834 H 85.19802907867849 3.7741533415001687 40.8184478158808 H 0.0 **** 0.06
835 H 84.1254964124606 3.129702443321216 42.08500447260769 H 0.0 **** 0.06
836 C 79.14722733376706 86.93375354728681 76.33590532987205 C 0.0 **** -0.24
837 H 78.07004065560483 86.9341307954779 76.16746361532157 H 0.0 **** 0.06
838 H 79.50712507247255 87.96182717372976 76.3824577272137 H 0.0 **** 0.06
839 H 79.64205505049185 86.41249497678703 75.51676805844474 H 0.0 **** 0.06
840 H 79.36807149135666 86.42863208485697 77.275172029186 H 0.0 **** 0.06
841 C 35.74111849185129 30.99359165110957 96.32969018200755 C 0.0 **** -0.24
842 H 35.08849640932465 31.603093539984457 95.70565519498064 H 0.0 **** 0.06
843 H 36.758498740740855 31.384164917065334 96.28173284712496 H 0.0 **** 0.06
844 H 35.72970480654821 29.964026761646267 95.9715816187936 H 0.0 **** 0.06
845 H 35.38924583368454 31.022506484946575 97.36101720930517 H 0.0 **** 0.06
846 C 29.00839486157095 94.54468231310886 1.2505399116766398 C 0.0 **** -0.24
847 H 29.900558829896504 95.00506386080599 0.8252715492119336 H 0.0 **** 0.06
848 H 29.161313229132375 93.4684983679769 1.337032678593971 H 0.0 **** 0.06
849 H 28.1549370904534 94.74014038278386 0.6020873005863763 H 0.0 **** 0.06
850 H 28.819065258928255 94.96584727590121 2.238013075983744 H 0.0 **** 0.06
851 C 107.05198419072478 96.3406615138228 71.48232538706706 C 0.0 **** -0.24
852 H 107.02515915480164 96.64974216419148 70.43760991792931 H 0.0 **** 0.06
853 H 107.11721445815294 97.22136367373557 72.12022233542508 H 0.0 **** 0.06
854 H 107.92119744262065 95.70389586258068 71.6498417716094 H 0.0 **** 0.06
855 H 106.14504989696812 95.78547778868653 71.71994280604359 H 0.0 **** 0.06
856 C 9.687865089765609 84.56723285021688 58.71029139402806 C 0.0 **** -0.24
857 H 8.952257900010977 84.47862016408588 57.91186379177853 H 0.0 **** 0.06
858 H 9.256531176975017 85.12737129586083 59.54064788364347 H 0.0 **** 0.06
859 H 10.568018601508342 85.09172796700634 58.33668385493708 H 0.0 **** 0.06
860 H 9.974794920505076 83.57319506676079 59.052187551497035 H 0.0 **** 0.06
861 C 56.64746250723795 49.514666828504446 60.8158172120111 C 0.0 **** -0.24
862 H 56.7199880953375 50.59739286057848 60.91943792086528 H 0.0 **** 0.06
863 H 57.456694489108145 49.041259859145335 61.371279429267815 H 0.0 **** 0.06
864 H 56.72335262386167 49.245751173954616 59.7619491204029 H 0.0 **** 0.06
865 H 55.688116246245045 49.17623314223815 61.208803617903584 H 0.0 **** 0.06
866 C 66.70303191598535 41.973094019483824 93.96868133587895 C 0.0 **** -0.24
867 H 66.28095014680295 41.696229743374204 94.93407397674201 H 0.0 **** 0.06
868 H 67.11256101604457 41.08626839152987 93.48320613341156 H 0.0 **** 0.06
869 H 67.49630758201282 42.70529583809457 94.11538859436763 H 0.0 **** 0.06
870 H 65.92266160994012 42.40369633657275 93.34101207082728 H 0.0 **** 0.06
871 C 108.38608603211992 60.47125091755896 66.01362524221611 C 0.0 **** -0.24
872 H 109.25233730438941 59.89690975043885 65.68445986514598 H 0.0 **** 0.06
873 H 108.13336860619879 60.192374676043926 67.0373839481714 H 0.0 **** 0.06
874 H 107.54056770587927 60.2588513103139 65.36027007847821 H 0.0 **** 0.06
875 H 108.61892880659919 61.53546967609128 65.973530932382 H 0.0 **** 0.06
876 C 6.107525571553737 38.68117813158936 45.81355102581682 C 0.0 **** -0.24
877 H 6.322955574103151 38.31060844211825 44.811300114450404 H 0.0 **** 0.06
878 H 6.2427539742809 37.874688833220745 46.53512515047956 H 0.0 **** 0.06
879 H 5.078422489906654 39.03738510067541 45.85517174620446 H 0.0 **** 0.06
880 H 6.785917316020875 39.50036672504109 46.05212713055414 H 0.0 **** 0.06
881 C 16.006736857922196 39.44423857610705 30.99097338845064 C 0.0 **** -0.24
882 H 16.11326116158062 40.28845875299743 30.310376086340995 H 0.0 **** 0.06
883 H 16.608827173395905 38.60941836261133 30.630344222587354 H 0.0 **** 0.06
884 H 14.959841134155116 39.14386020388821 31.03561692954284 H 0.0 **** 0.06
885 H 16.345195200619337 39.73432146206572 31.985776758180407 H 0.0 **** 0.06
886 C 43.03635909415067 27.834819644044458 90.45956090675148 C 0.0 **** -0.24
887 H 42.06234776681228 27.520687782161836 90.83519236096825 H 0.0 **** 0.06
888 H 43.82214366011074 27.346061360468795 91.0371774860082 H 0.0 **** 0.06
889 H 43.13262703522537 28.91656474726841 90.55789670092076 H 0.0 **** 0.06
890 H 43.12864220905499 27.555500996061106 89.41036037969283 H 0.0 **** 0.06
891 C 73.27652091461349 43.95550105968215 17.60202749593816 C 0.0 **** -0.24
892 H 73.75642526828925 43.04880883552738 17.969682033340064 H 0.0 **** 0.06
893 H 73.39472456870521 44.75191629831369 18.337077527726905 H 0.0 **** 0.06
894 H 72.21526563415011 43.76493879053086 17.43928794303318 H 0.0 **** 0.06
895 H 73.73957287522826 44.2558954380666 16.66295301333537 H 0.0 **** 0.06
896 C 89.18320024994148 92.65799565202053 96.81256729057709 C 0.0 **** -0.24
897 H 88.59191084567584 93.55127350652532 97.01669086709633 H 0.0 **** 0.06
898 H 90.19751712236855 92.94967764272866 96.53741126662922 H 0.0 **** 0.06
899 H 88.72922596659492 92.1019899787741 95.99207297510499 H 0.0 **** 0.06
900 H 89.21300945590872 92.03080185417787 97.70331483852416 H 0.0 **** 0.06
901 C 61.63278168707268 74.57346829952525 82.33011100114129 C 0.0 **** -0.24
902 H 61.735783581040096 75.58148134721233 82.732291540235 H 0.0 **** 0.06
903 H 62.54599333690062 74.01027817647156 82.52482175645369 H 0.0 **** 0.06
904 H 61.45962041364831 74.6264315263324 81.25593091312032 H 0.0 **** 0.06
905 H 60.789950489333364 74.07614000594691 82.80957734861352 H 0.0 **** 0.06
906 C 59.005671226153765 70.1777423371399 98.67742187556905 C 0.0 **** -0.24
907 H 58.557143490273575 70.83366906440767 97.93177193916091 H 0.0 **** 0.06
908 H 59.0035236533798 70.67622595386317 99.64732413329472 H 0.0 **** 0.06
909 H 60.03113774036564 69.94772880034245 98.38884597970522 H 0.0 **** 0.06
910 H 58.43088002059642 69.25334552994627 98.74174545011539 H 0.0 **** 0.06
911 C 108.03139482023226 44.80927827150632 53.31756228469864 C 0.0 **** -0.24
912 H 108.54979680672776 44.94296877531497 52.36823669273263 H 0.0 **** 0.06
913 H 108.6021976125489 44.130017745219384 53.950398087018904 H 0.0 **** 0.06
914 H 107.04130719276858 44.39168370991071 53.13495031736465 H 0.0 **** 0.06
915 H 107.93204338663733 45.77392229199903 53.81579425529579 H 0.0 **** 0.06
916 C 46.13943339439771 75.19762646601309 36.14757136882628 C 0.0 **** -0.24
917 H 46.97945594725056 74.9555525644599 36.79908286531929 H 0.0 **** 0.06
918 H 45.82563977141194 76.22690303976526 36.32692369364571 H 0.0 **** 0.06
919 H 45.310227627274486 74.52314143403261 36.357903329823614 H 0.0 **** 0.06
920 H 46.44411629350631 75.08663828858607 35.10668960671603 H 0.0 **** 0.06
921 C 78.81631962899357 21.841356924004934 22.4012900120796 C 0.0 **** -0.24
922 H 78.27591018631983 22.75152197358428 22.66197774655886 H 0.0 **** 0.06
923 H 78.69379374380947 21.105877584281743 23.197184147889345 H 0.0 **** 0.06
924 H 79.87460860342738 22.070874735018524 22.27719778068638 H 0.0 **** 0.06
925 H 78.4204449620232 21.43827053896507 21.469493658391116 H 0.0 **** 0.06
926 C 4.14630235263348 35.10132494169582 55.8120529616264 C 0.0 **** -0.24
927 H 3.557165764057462 34.26591942764901 55.43547826047762 H 0.0 **** 0.06
928 H 3.521155451844823 35.729867603620306 56.44747676821414 H 0.0 **** 0.06
929 H 4.519544745727153 35.69012464338974 54.973736837702724 H 0.0 **** 0.06
930 H 4.986752552883065 34.72101408627789 56.39160444040928 H 0.0 **** 0.06
931 C 19.181539888135898 77.43357472036828 77.32013392501403 C 0.0 **** -0.24
932 H 19.779390880712374 78.2811580944755 76.98494519977194 H 0.0 **** 0.06
933 H 18.37402650716939 77.78960856021462 77.96066648326764 H 0.0 **** 0.06
934 H 19.812196661218767 76.74344848765884 77.88067445525515 H 0.0 **** 0.06
935 H 18.76011659172119 76.92098009875895 76.45525587842754 H 0.0 **** 0.06
936 C 96.72833996380098 61.73455047551175 52.42690922397716 C 0.0 **** -0.24
937 H 95.8350486175662 61.74380562663339 51.80264184574631 H 0.0 **** 0.06
938 H 97.5271301319766 61.20271812805521 51.91052326544574 H 0.0 **** 0.06
939 H 96.50742877977905 61.23316167571949 53.36911481496513 H 0.0 **** 0.06
940 H 97.04386315713862 62.75951018511523 52.62533966351333 H 0.0 **** 0.06
941 C 7.965180569995255 38.55376158623099 73.391547138563 C 0.0 **** -0.24
942 H 7.928483934435462 37.799266462492284 72.60579760847465 H 0.0 **** 0.06
943 H 8.97009348244191 38.591561901140565 73.81293659601616 H 0.0 **** 0.06
944 H 7.252217997954119 38.29669334183896 74.17502410601836 H 0.0 **** 0.06
945 H 7.709365739305227 39.526384980344105 72.97305186581156 H 0.0 **** 0.06
946 C 60.26340506450242 12.635370718570016 54.648897619236436 C 0.0 **** -0.24
947 H 60.11791356022749 13.219270477992097 53.7396852184599 H 0.0 **** 0.06
948 H 60.65975922751895 13.280163193348244 55.433803948904085 H 0.0 **** 0.06
949 H 60.96679222552527 11.825920012563927 54.45232716258823 H 0.0 **** 0.06
950 H 59.30795239142836 12.21833577090689 54.96813567447526 H 0.0 **** 0.06
951 C 84.84359279603915 15.075852735210447 33.49409702521433 C 0.0 **** -0.24
952 H 85.88900723496845 14.876816712315872 33.73069202663049 H 0.0 **** 0.06
953 H 84.45484510366533 14.273429062070136 32.86704092803478 H 0.0 **** 0.06
954 H 84.76670125485052 16.02344440414629 32.9603952247723 H 0.0 **** 0.06
955 H 84.2653826369272 15.129396151746107 34.41572108229167 H 0.0 **** 0.06
956 C 14.215335784485617 93.50382263170779 42.11268828110896 C 0.0 **** -0.24
957 H 15.147356206763448 93.68787573003414 41.57822569400501 H 0.0 **** 0.06
958 H 13.618060061641884 94.41534523035568 42.12373853548592 H 0.0 **** 0.06
959 H 14.438106268365857 93.20194628256988 43.135818682080185 H 0.0 **** 0.06
960 H 13.66046300388335 92.7107543781874 41.61169747023923 H 0.0 **** 0.06
961 C 15.37988625170766 65.96285413911059 38.116452541302465 C 0.0 **** -0.24
962 H 15.691725600584505 64.95544156984204 38.3932937086185 H 0.0 **** 0.06
963 H 15.66904341202195 66.66168702245443 38.902209288050926 H 0.0 **** 0.06
964 H 14.296749261284091 65.98519942427924 37.99012404923701 H 0.0 **** 0.06
965 H 15.860762837748354 66.2477512775092 37.18096701758543 H 0.0 **** 0.06
966 C 53.16850748587045 91.13436714690556 5.982988322675425 C 0.0 **** -0.24
967 H 53.95459639356915 90.91026728404398 5.2617273730637635 H 0.0 **** 0.06
968 H 52.75993523855336 90.20158172968696 6.3740305687503 H 0.0 **** 0.06
969 H 52.3777134073551 91.70077480159502 5.492914991080482 H 0.0 **** 0.06
970 H 53.58298429572467 91.72179364654158 6.801779446339282 H 0.0 **** 0.06
971 C 95.87926646611747 60.490992935732095 9.360729495630494 C 0.0 **** -0.24
972 H 96.9027809028065 60.470351643261054 8.985520177619549 H 0.0 **** 0.06
973 H 95.87744229096955 60.24448152859935 10.423088062692557 H 0.0 **** 0.06
974 H 95.27914776501554 59.76087471146543 8.817083637207816 H 0.0 **** 0.06
975 H 95.46034816075353 61.486108036792515 9.216666408587002 H 0.0 **** 0.06
976 C 97.20888095847766 78.30267983326843 38.216301444850444 C 0.0 **** -0.24
977 H 97.36959083119088 78.96223075151335 37.363431119214624 H 0.0 **** 0.06
978 H 96.67244590469284 77.41191695674388 37.88947765309541 H 0.0 **** 0.06
979 H 96.62146035329059 78.82424794364282 38.97227804942736 H 0.0 **** 0.06
980 H 98.17144078683376 78.01393903966365 38.63827322928768 H 0.0 **** 0.06
981 C 95.64735737357181 46.909745764188294 60.29407475908765 C 0.0 **** -0.24
982 H 95.08849488466105 46.4790760328946 59.462631908476695 H 0.0 **** 0.06
983 H 95.89432325193896 46.12456329896217 61.00961391510155 H 0.0 **** 0.06
984 H 95.04056594334807 47.670032820533564 60.784246704568375 H 0.0 **** 0.06
985 H 96.56540165512531 47.362556975616975 59.919849483875126 H 0.0 **** 0.06
986 C 34.737157900105814 13.067211199891293 18.931025844088083 C 0.0 **** -0.24
987 H 35.738248682944516 13.352688703969186 18.610152613599894 H 0.0 **** 0.06
988 H 34.557189534568096 13.443684976600796 19.938120556112864 H 0.0 **** 0.06
989 H 34.64959592857778 11.980869413688225 18.928149436277806 H 0.0 **** 0.06
990 H 34.00140498017299 13.492671953291769 18.247461855793944 H 0.0 **** 0.06
991 C 1.5850279522684332 87.52824203404816 29.455522011828293 C 0.0 **** -0.24
992 H 0.9467810491850059 86.657094298628 29.312279869364772 H 0.0 **** 0.06
993 H 2.6204228729696126 87.2589632042084 29.247319890378265 H 0.0 **** 0.06
994 H 1.4995034294899483 87.87549950364107 30.485727197582776 H 0.0 **** 0.06
995 H 1.2731490952356523 88.32341858290536 28.77771249398768 H 0.0 **** 0.06
996 C 6.713605267901187 31.346297712375183 27.765576042666652 C 0.0 **** -0.24
997 H 6.736075574838424 30.322956639382994 28.139650868379647 H 0.0 **** 0.06
998 H 6.358590508429359 32.01256676989396 28.552469922979753 H 0.0 **** 0.06
999 H 6.041709953879433 31.40487817610981 26.90907332936291 H 0.0 **** 0.06
1000 H 7.716771498742162 31.64456165337878 27.461681363542652 H 0.0 **** 0.06
1001 C 26.959432475683435 86.89899025568756 96.5556944484913 C 0.0 **** -0.24
1002 H 27.713903954462012 87.37496050465224 95.92930321687834 H 0.0 **** 0.06
1003 H 26.67674858800257 85.94059803409056 96.11904002949689 H 0.0 **** 0.06
1004 H 26.081532216081236 87.5421931536 96.61814475159719 H 0.0 **** 0.06
1005 H 27.364532005411853 86.7383300999332 97.55406285597962 H 0.0 **** 0.06
1006 C 1.3260351520510198 96.18644483668024 81.3353552959041 C 0.0 **** -0.24
1007 H 1.3957700228500016 97.21516706344863 81.68910025978647 H 0.0 **** 0.06
1008 H 0.35840886840821895 96.03157769587118 80.85803107879212 H 0.0 **** 0.06
1009 H 1.4285300265561318 95.50481090663531 82.180017283502 H 0.0 **** 0.06
1010 H 2.1210118153259145 95.99604457054973 80.61498548755773 H 0.0 **** 0.06
1011 C 108.62422389741045 80.36123912030433 21.914818553142567 C 0.0 **** -0.24
1012 H 107.73577479198764 80.76632570226167 22.398518746296645 H 0.0 **** 0.06
1013 H 108.4233570162952 79.3440091760433 21.580137285343596 H 0.0 **** 0.06
1014 H 109.45268041806867 80.354356877719 22.62341809532674 H 0.0 **** 0.06
1015 H 108.88546166565834 80.98100979531 21.05665071561316 H 0.0 **** 0.06
1016 C 0.23332580253708102 33.11060744282156 1.2022708365559964 C 0.0 **** -0.24
1017 H 0.09363196263127804 34.19076225254895 1.1701610142600032 H 0.0 **** 0.06
1018 H 0.15183012420814634 32.70241965830647 0.19426532499981874 H 0.0 **** 0.06
1019 H -0.5314978734975 32.664692919987374 1.8375910808096592 H 0.0 **** 0.06
1020 H 1.2195668491929723 32.88380286874718 1.6076844089757145 H 0.0 **** 0.06
1021 C 33.35265214636331 17.56598500793966 26.37325558268961 C 0.0 **** -0.24
1022 H 34.3006997607788 18.066600364785714 26.17311833947116 H 0.0 **** 0.06
1023 H 33.318399565881805 17.25772970100617 27.417989648409957 H 0.0 **** 0.06
1024 H 33.26260229894183 16.68988961091432 25.73171704129942 H 0.0 **** 0.06
1025 H 32.530338413267145 18.25242567605744 26.16857471908898 H 0.0 **** 0.06
1026 C 70.4349660509215 104.32338647063874 37.900838991814 C 0.0 **** -0.24
1027 H 70.77074129954224 103.35137451954944 38.263801347591766 H 0.0 **** 0.06
1028 H 70.62643447540415 105.08042210666002 38.661627907585 H 0.0 **** 0.06
1029 H 69.36669099687307 104.2816016789816 37.689589665854726 H 0.0 **** 0.06
1030 H 70.97572133004331 104.57715617734337 36.98974269152524 H 0.0 **** 0.06
1031 C 80.51986575404077 81.43527477406172 89.24847145549333 C 0.0 **** -0.24
1032 H 80.81758372173964 82.46498121696658 89.05025560762721 H 0.0 **** 0.06
1033 H 79.70752854492747 81.15673995306582 88.5775620351813 H 0.0 **** 0.06
1034 H 80.18355853762245 81.34848554333462 90.28220014562567 H 0.0 **** 0.06
1035 H 81.37015405649186 80.77386308218703 89.08605169949033 H 0.0 **** 0.06
1036 C 8.600077376483739 15.212929885441966 98.58627749893196 C 0.0 **** -0.24
1037 H 9.442821560604159 15.292299709897492 99.27435498501205 H 0.0 **** 0.06
1038 H 8.95348123311129 14.850857482738604 97.62032812161397 H 0.0 **** 0.06
1039 H 8.139463107408972 16.19229744356008 98.461567900526 H 0.0 **** 0.06
1040 H 7.8672802377235485 14.515052474037972 98.99028776255577 H 0.0 **** 0.06
1041 C 68.95186516732463 48.216047330062395 93.74093459876401 C 0.0 **** -0.24
1042 H 68.48580630803559 48.750047790099416 92.91324354598055 H 0.0 **** 0.06
1043 H 68.54437106192444 47.20615302820994 93.7977938057075 H 0.0 **** 0.06
1044 H 68.74970698241759 48.743082227089076 94.67294914178937 H 0.0 **** 0.06
1045 H 70.02865573304604 48.164344970867035 93.57903086221835 H 0.0 **** 0.06
1046 C 109.45053012520759 34.25839540164014 6.332442651911329 C 0.0 **** -0.24
1047 H 109.33519248603051 33.4172842875991 7.015871633913925 H 0.0 **** 0.06
1048 H 109.58278397043489 35.17645097852429 6.906035540743385 H 0.0 **** 0.06
1049 H 108.56132034513791 34.344184196095796 5.708276736441309 H 0.0 **** 0.06
1050 H 110.32365279672501 34.09535757262489 5.700055613336017 H 0.0 **** 0.06
1051 C 48.320201354786185 95.91892434935323 71.42343129282524 C 0.0 **** -0.24
1052 H 47.66341362215565 96.73000515951696 71.10910717191561 H 0.0 **** 0.06
1053 H 48.36774865106318 95.16456613182504 70.63768398739872 H 0.0 **** 0.06
1054 H 47.93123445068595 95.46981226342245 72.33650186806726 H 0.0 **** 0.06
1055 H 49.319249034243676 96.31298486400584 71.60972382466429 H 0.0 **** 0.06
1056 C 61.3682508679079 86.83398521146353 18.739502296056205 C 0.0 **** -0.24
1057 H 60.56508508507795 86.86745234212157 18.002385201656544 H 0.0 **** 0.06
1058 H 62.31013297763235 87.10484186935696 18.2623391898587 H 0.0 **** 0.06
1059 H 61.44365086509981 85.82693855986844 19.148534932129362 H 0.0 **** 0.06
1060 H 61.152508591428415 87.53785158950919 19.54372570239523 H 0.0 **** 0.06
1061 C 38.451395822716506 99.41380871080474 94.14587772702396 C 0.0 **** -0.24
1062 H 39.337553517278224 100.03960965222109 94.03698044494979 H 0.0 **** 0.06
1063 H 37.563450714521025 100.04561679638925 94.18488981549376 H 0.0 **** 0.06
1064 H 38.527112534067754 98.83560320814729 95.0662217873508 H 0.0 **** 0.06
1065 H 38.37816847238986 98.73669582463964 93.29490842531379 H 0.0 **** 0.06
1066 C 69.79327117161178 68.31594100689306 48.273477397074636 C 0.0 **** -0.24
1067 H 69.70924051213615 67.41435937819097 47.66752836624255 H 0.0 **** 0.06
1068 H 68.79940750588746 68.72858999158544 48.4496669015543 H 0.0 **** 0.06
1069 H 70.40425211670785 69.05046719134728 47.74969272132484 H 0.0 **** 0.06
1070 H 70.25928339095242 68.0705876435004 49.22808476584088 H 0.0 **** 0.06
1071 C 4.162043108026893 26.188896728382787 14.962298819373409 C 0.0 **** -0.24
1072 H 4.956521283918448 25.44273514170095 14.998894404514925 H 0.0 **** 0.06
1073 H 3.198481647392299 25.698836099930844 15.102604788356103 H 0.0 **** 0.06
1074 H 4.179096945513066 26.68918109820376 13.993561690390852 H 0.0 **** 0.06
1075 H 4.316398176946052 26.922712147803765 15.753091639596555 H 0.0 **** 0.06
1076 C 33.366211367061 14.015156948652418 28.17078532772655 C 0.0 **** -0.24
1077 H 34.03854828747086 14.853679380224307 27.992384080223076 H 0.0 **** 0.06
1078 H 32.82728762976228 13.780669757143826 27.25348506919306 H 0.0 **** 0.06
1079 H 32.65541011009307 14.279792096132482 28.954048826369274 H 0.0 **** 0.06
1080 H 33.94553772357736 13.146220962253238 28.485266106265726 H 0.0 **** 0.06
1081 C 56.43293995260734 108.28541063161202 74.4147902343035 C 0.0 **** -0.24
1082 H 57.021330142167415 107.37112051563386 74.48633315598721 H 0.0 **** 0.06
1083 H 55.58734130649316 108.2273792403071 75.10093541210239 H 0.0 **** 0.06
1084 H 56.06692135180549 108.40392489732795 73.3953675677013 H 0.0 **** 0.06
1085 H 57.056738313250094 109.14004905845096 74.67852054472596 H 0.0 **** 0.06
1086 C 50.03960181255695 36.640859021583935 16.019879857977628 C 0.0 **** -0.24
1087 H 48.959345987777226 36.49788243885354 16.010346621446217 H 0.0 **** 0.06
1088 H 50.43383401198071 36.36010514729759 16.99658611014206 H 0.0 **** 0.06
1089 H 50.268658900390676 37.68841849036721 15.822555487928923 H 0.0 **** 0.06
1090 H 50.495501291032696 36.01795815258572 15.250025289092093 H 0.0 **** 0.06
1091 C 67.52458798842854 83.65935820171552 94.41630656923456 C 0.0 **** -0.24
1092 H 66.93492238778337 84.41594933356691 93.89876024631275 H 0.0 **** 0.06
1093 H 66.87483773459877 83.07518452574016 95.06837068648804 H 0.0 **** 0.06
1094 H 68.29640266684044 84.14667878408085 95.01283373640513 H 0.0 **** 0.06
1095 H 67.99361549185673 83.00156246773179 93.68482190135768 H 0.0 **** 0.06
1096 C 49.51332764959295 43.142333300505584 89.56692906428917 C 0.0 **** -0.24
1097 H 50.43367480090757 43.49083531425521 90.03620761818982 H 0.0 **** 0.06
1098 H 49.27369795927143 43.783063981880446 88.71751236066758 H 0.0 **** 0.06
1099 H 48.70029340265529 43.17966447458667 90.29241758401412 H 0.0 **** 0.06
1100 H 49.646147757476626 42.11704628387446 89.22263532249276 H 0.0 **** 0.06
1101 C 106.356375718718 71.40307245351023 80.48273539522336 C 0.0 **** -0.24
1102 H 106.37852955187975 72.22211620797489 79.76420608143565 H 0.0 **** 0.06
1103 H 105.53343313103821 70.73043719077366 80.24145722919332 H 0.0 **** 0.06
1104 H 106.21600219377103 71.80513973665582 81.48585304143506 H 0.0 **** 0.06
1105 H 107.29840951345619 70.8563907866386 80.43841434538524 H 0.0 **** 0.06
1106 C 48.240427365669305 95.96136342032756 27.37813920172006 C 0.0 **** -0.24
1107 H 48.52128619368136 94.96014806562438 27.705209537883754 H 0.0 **** 0.06
1108 H 47.66213567271073 96.45116445470687 28.161502796787914 H 0.0 **** 0.06
1109 H 47.638774929903526 95.89184185106043 26.471489325824887 H 0.0 **** 0.06
1110 H 49.14019808331856 96.54263487447714 27.17280023523232 H 0.0 **** 0.06
1111 C 92.47446248390153 28.033177584902262 52.6333983690821 C 0.0 **** -0.24
1112 H 92.38997445260257 28.579653587953118 51.69357196977876 H 0.0 **** 0.06
1113 H 93.41693126525176 27.484032996009233 52.65039186093094 H 0.0 **** 0.06
1114 H 91.64420297642732 27.33290539755083 52.72151105916947 H 0.0 **** 0.06
1115 H 92.44804977489237 28.735164082307932 53.46657672220289 H 0.0 **** 0.06
1116 C 14.768008956410682 95.8417105650233 100.30786650484225 C 0.0 **** -0.24
1117 H 15.715258469640418 95.42698438051715 100.65169841878287 H 0.0 **** 0.06
1118 H 14.594596047131773 95.54292525060401 99.27334234583975 H 0.0 **** 0.06
1119 H 14.802780219779919 96.92958253525063 100.37154091102747 H 0.0 **** 0.06
1120 H 13.958274604413205 95.46650144217139 100.93477983577611 H 0.0 **** 0.06
1121 C 92.93923705781546 19.689752154316956 36.66550408007193 C 0.0 **** -0.24
1122 H 93.26533241942064 19.831987712962377 35.635015000616626 H 0.0 **** 0.06
1123 H 93.17520599640783 20.581423309315433 37.246776908587954 H 0.0 **** 0.06
1124 H 93.45332571806807 18.82982841828049 37.09418677427897 H 0.0 **** 0.06
1125 H 91.86329717338407 19.518059151103206 36.68519448013669 H 0.0 **** 0.06
1126 C 14.513074185162452 34.2627857508524 50.6928950550718 C 0.0 **** -0.24
1127 H 14.739840987571128 33.36988281905536 51.27562401731396 H 0.0 **** 0.06
1128 H 13.450340153900868 34.493361965281366 50.7812747150864 H 0.0 **** 0.06
1129 H 14.761159057494282 34.086978226246146 49.6460548165642 H 0.0 **** 0.06
1130 H 15.099130566835413 35.1003872412428 51.07017013783701 H 0.0 **** 0.06
1131 C 54.236894408157596 30.314217987927947 97.9885841165194 C 0.0 **** -0.24
1132 H 54.98844735029088 29.66573259167626 98.43720383982503 H 0.0 **** 0.06
1133 H 53.934736734383975 29.90688726021918 97.02310012135672 H 0.0 **** 0.06
1134 H 54.655047194093676 31.311805078308595 97.84767209960899 H 0.0 **** 0.06
1135 H 53.369536538193 30.37411848788659 98.6459478780701 H 0.0 **** 0.06
1136 C 79.6788339849213 71.5206654375252 85.0658802198093 C 0.0 **** -0.24
1137 H 80.64907759687162 71.03821291183547 85.18399777304322 H 0.0 **** 0.06
1138 H 79.8214713507184 72.53980605871891 84.70696125229674 H 0.0 **** 0.06
1139 H 79.16421048180004 71.54186678791086 86.02720382914893 H 0.0 **** 0.06
1140 H 79.0802312746016 70.96180005151379 84.34706932582618 H 0.0 **** 0.06
1141 C 56.457608258800235 63.98658986235898 33.47178226794347 C 0.0 **** -0.24
1142 H 55.61633840602201 63.62178837267379 34.06114614056469 H 0.0 **** 0.06
1143 H 56.30358159499207 63.7312625412884 32.423174796735566 H 0.0 **** 0.06
1144 H 57.378355793098876 63.523740080993946 33.82767824897792 H 0.0 **** 0.06
1145 H 56.531206113906364 65.06894515297967 33.575970689525775 H 0.0 **** 0.06
1146 C 37.72276889929708 32.663596810207 81.62311921923646 C 0.0 **** -0.24
1147 H 36.87693341018161 32.001907956960395 81.8135926344018 H 0.0 **** 0.06
1148 H 38.570473618015 32.353950705186435 82.23433183443274 H 0.0 **** 0.06
1149 H 37.44656751062047 33.68703743434244 81.87431810755783 H 0.0 **** 0.06
1150 H 37.9944675986448 32.609317523705045 80.56907632502936 H 0.0 **** 0.06
1151 C 46.577878631709325 35.002918659116744 61.497996592629704 C 0.0 **** -0.24
1152 H 45.58113325692534 35.11267344121575 61.92582416634906 H 0.0 **** 0.06
1153 H 46.99968168503102 34.044655722624384 61.802440725771305 H 0.0 **** 0.06
1154 H 47.216780935294054 35.81164405547668 61.852021897585814 H 0.0 **** 0.06
1155 H 46.512208107024605 35.04215263569262 60.410367991241 H 0.0 **** 0.06
1156 C 91.78360971638975 95.7859976072803 95.40476957687443 C 0.0 **** -0.24
1157 H 91.8850931663867 94.72405470834883 95.17916751014035 H 0.0 **** 0.06
1158 H 91.93232086455482 96.36739434928654 94.49446428724269 H 0.0 **** 0.06
1159 H 92.53026960686 96.07273862899515 96.14581174539913 H 0.0 **** 0.06
1160 H 90.78623753249872 95.980045099175 95.80045531599553 H 0.0 **** 0.06
1161 C 64.49160197159976 52.679734995581555 100.38883667156645 C 0.0 **** -0.24
1162 H 64.7535973911256 51.62149709183366 100.38438429303973 H 0.0 **** 0.06
1163 H 64.1006066955926 52.96165173665686 99.41131148057224 H 0.0 **** 0.06
1164 H 65.3781662262401 53.27306571041066 100.61082385495875 H 0.0 **** 0.06
1165 H 63.73268128073346 52.86229527108574 101.15082097823736 H 0.0 **** 0.06
1166 C 44.61491291281901 22.69759018136125 59.86538837110703 C 0.0 **** -0.24
1167 H 45.189994540817864 23.53214700543319 60.26713445597113 H 0.0 **** 0.06
1168 H 43.79769734824811 23.07976687628519 59.25484067667321 H 0.0 **** 0.06
1169 H 44.21061314984266 22.10759911491823 60.687297767564644 H 0.0 **** 0.06
1170 H 45.26430436327604 22.071870965788733 59.25407093048335 H 0.0 **** 0.06
1171 C 7.5238192206364385 16.607545533371972 20.052285863340686 C 0.0 **** -0.24
1172 H 6.593391932755818 16.1129261716103 19.771008989918982 H 0.0 **** 0.06
1173 H 7.299523226556925 17.580347110334802 20.48813467723461 H 0.0 **** 0.06
1174 H 8.145346427876282 16.740661435334875 19.166550026589775 H 0.0 **** 0.06
1175 H 8.05508831614186 15.994929797533892 20.78052549462028 H 0.0 **** 0.06
1176 C 102.94569421059249 59.45170103077777 64.4970080270374 C 0.0 **** -0.24
1177 H 102.31433926517245 58.676945128368175 64.0611960012017 H 0.0 **** 0.06
1178 H 103.98641875315897 59.12754636159399 64.47493840000453 H 0.0 **** 0.06
1179 H 102.6424075613044 59.62916539456549 65.52801112552953 H 0.0 **** 0.06
1180 H 102.83927646154302 60.37230467756382 63.92346462331537 H 0.0 **** 0.06
1181 C 61.05719301891207 54.58972868357955 2.631109398653109 C 0.0 **** -0.24
1182 H 60.25671412086501 55.134121941836554 3.133564820825484 H 0.0 **** 0.06
1183 H 60.65342622517812 54.071516699057554 1.7621183112109264 H 0.0 **** 0.06
1184 H 61.490008763256526 53.86404940014933 3.319556900166475 H 0.0 **** 0.06
1185 H 61.827678850540394 55.291228529567945 2.311222838370057 H 0.0 **** 0.06
1186 C 72.81018102926197 93.03889746670356 48.31428371831635 C 0.0 **** -0.24
1187 H 73.37368346567845 92.53649795326554 47.528290348293154 H 0.0 **** 0.06
1188 H 73.46556504940654 93.72989278942717 48.84499092640118 H 0.0 **** 0.06
1189 H 72.42105633804158 92.29723847809662 49.011680140389984 H 0.0 **** 0.06
1190 H 71.98176672521993 93.59100432257105 47.86987776877015 H 0.0 **** 0.06
1191 C 100.57847129270229 42.20715445028401 106.1309249223671 C 0.0 **** -0.24
1192 H 99.88331525651374 41.45342934602641 105.76045705595958 H 0.0 **** 0.06
1193 H 101.3531726252076 41.7239558142162 106.72647239958218 H 0.0 **** 0.06
1194 H 100.03986354837298 42.92570812672463 106.74784235668788 H 0.0 **** 0.06
1195 H 101.0365141600809 42.72318024475001 105.28771740105344 H 0.0 **** 0.06
1196 C 69.43664067839478 102.33642636816069 67.25952099229474 C 0.0 **** -0.24
1197 H 69.62464184175911 101.26437034020336 67.2000121429234 H 0.0 **** 0.06
1198 H 69.51553682866194 102.66287225762687 68.29630704686338 H 0.0 **** 0.06
1199 H 68.43506461874216 102.55019836217593 66.88572048629162 H 0.0 **** 0.06
1200 H 70.17087088276793 102.86739653536642 66.65429912146621 H 0.0 **** 0.06
1201 C 72.57476745031238 63.20935234878121 58.07496092403312 C 0.0 **** -0.24
1202 H 72.95973602293333 63.11052811154474 57.0593385047182 H 0.0 **** 0.06
1203 H 71.52741329105592 62.90778493555305 58.095411695949394 H 0.0 **** 0.06
1204 H 72.66020079277723 64.2470776242684 58.396194831560706 H 0.0 **** 0.06
1205 H 73.15019032584456 62.57170121575325 58.745648915554455 H 0.0 **** 0.06
1206 C 107.95136196717844 6.988586057739388 26.089996700034874 C 0.0 **** -0.24
1207 H 108.23632530229706 6.991184099657273 25.037651681601318 H 0.0 **** 0.06
1208 H 108.07074735529365 5.9838933869255335 26.49537877205617 H 0.0 **** 0.06
1209 H 106.9107098102989 7.2973675572229215 26.184706235905438 H 0.0 **** 0.06
1210 H 108.58750392153271 7.681371913626881 26.640083049248503 H 0.0 **** 0.06
1211 C 26.289287764540624 38.668480356750486 101.38563996489029 C 0.0 **** -0.24
1212 H 26.795307610777034 39.27250346785545 100.63279148152401 H 0.0 **** 0.06
1213 H 26.74818649980932 38.84350509075749 102.35970374703373 H 0.0 **** 0.06
1214 H 26.37941814088249 37.613675510515975 101.12580131802929 H 0.0 **** 0.06
1215 H 25.235557698195173 38.94417716666266 101.42576567791315 H 0.0 **** 0.06
1216 C 102.16861282572613 66.36751114123882 96.42536161341657 C 0.0 **** -0.24
1217 H 102.14741698759508 66.59612837325443 95.35973092223445 H 0.0 **** 0.06
1218 H 102.67106940729971 67.17431783368036 96.95913424143282 H 0.0 **** 0.06
1219 H 102.70642090320781 65.43358412351381 96.58613356734708 H 0.0 **** 0.06
1220 H 101.14728390749809 66.26720209387625 96.79487247784151 H 0.0 **** 0.06
1221 C 98.05508839796732 51.04458671399937 56.63588972952124 C 0.0 **** -0.24
1222 H 98.07580282244214 52.02121970685248 56.1518165983951 H 0.0 **** 0.06
1223 H 97.10590298069707 50.917655998777064 57.15529269268714 H 0.0 **** 0.06
1224 H 98.87429242719077 50.97732868538601 57.35138183425914 H 0.0 **** 0.06
1225 H 98.16477466565664 50.263872748835695 55.88226942771141 H 0.0 **** 0.06
1226 C 4.53357305313196 93.51029810525553 109.24361392823205 C 0.0 **** -0.24
1227 H 3.8807539173086525 92.86909592323072 108.65079369154533 H 0.0 **** 0.06
1228 H 4.109579845111568 93.63924445291096 110.2395007021874 H 0.0 **** 0.06
1229 H 4.62582041238494 94.48142963970523 108.7575914832424 H 0.0 **** 0.06
1230 H 5.518995666325168 93.0492893225173 109.32439844768317 H 0.0 **** 0.06
1231 C 32.44287922861939 67.80018287194065 66.47341876093896 C 0.0 **** -0.24
1232 H 32.12670126917982 66.93157532231811 67.05093869982359 H 0.0 **** 0.06
1233 H 32.22752886699749 68.70820667614754 67.03694859443019 H 0.0 **** 0.06
1234 H 31.90214150557773 67.82260123214837 65.52731781991966 H 0.0 **** 0.06
1235 H 33.513734075441306 67.73684784708882 66.27934029710154 H 0.0 **** 0.06
1236 C 76.92557839493452 65.65963089545443 64.5468531991136 C 0.0 **** -0.24
1237 H 76.81581173339718 66.50038931856098 63.8611998873274 H 0.0 **** 0.06
1238 H 76.80464389014435 66.00918785812983 65.57229439720173 H 0.0 **** 0.06
1239 H 77.91538135355852 65.21937300343424 64.42730847385296 H 0.0 **** 0.06
1240 H 76.16545399603677 64.91027369584691 64.32592888982902 H 0.0 **** 0.06
1241 C 95.92471486890105 107.67691316780967 46.24707734783388 C 0.0 **** -0.24
1242 H 96.25382395286397 108.28581259181188 45.40484306816316 H 0.0 **** 0.06
1243 H 96.19526643045987 106.63539296017935 46.06866082164815 H 0.0 **** 0.06
1244 H 94.84310523488341 107.75831575040904 46.35378288677217 H 0.0 **** 0.06
1245 H 96.40743548568122 108.02707764375843 47.159207538726456 H 0.0 **** 0.06
1246 C 48.876624019523824 15.646014882016747 107.16830847054382 C 0.0 **** -0.24
1247 H 48.95614522739582 16.197971210734018 106.23146671270153 H 0.0 **** 0.06
1248 H 49.7517014445147 15.007540305362895 107.28922404034182 H 0.0 **** 0.06
1249 H 47.97630217489204 15.031503732526591 107.15254446496955 H 0.0 **** 0.06
1250 H 48.82126343369188 16.348886603575725 107.99934179866379 H 0.0 **** 0.06
1251 C 46.04642165340803 39.525821560201905 45.77314244994341 C 0.0 **** -0.24
1252 H 46.50195228742115 38.94221281058958 46.57337276096757 H 0.0 **** 0.06
1253 H 46.711680531565634 39.539623559934 44.90922807746222 H 0.0 **** 0.06
1254 H 45.87691194830467 40.545820164946576 46.11827601355094 H 0.0 **** 0.06
1255 H 45.09395384449158 39.075040472650585 45.49218443079394 H 0.0 **** 0.06
1256 C 32.388956662114424 14.599337211592413 79.22119018948628 C 0.0 **** -0.24
1257 H 33.32329919178545 14.762075862077381 79.7584136360534 H 0.0 **** 0.06
1258 H 32.592872505326596 14.52456369054076 78.15274779775632 H 0.0 **** 0.06
1259 H 31.714006478096962 15.43433850530188 79.40563499867244 H 0.0 **** 0.06
1260 H 31.926782249201494 13.67454847694404 79.56914501600028 H 0.0 **** 0.06
1261 C 45.834831234847 3.352716564253015 53.22435796606744 C 0.0 **** -0.24
1262 H 44.99337629819451 3.402977527347815 52.532783439762646 H 0.0 **** 0.06
1263 H 46.76852320792726 3.436387203175144 52.66689275766292 H 0.0 **** 0.06
1264 H 45.81214627484586 2.4003642796541556 53.75510313591826 H 0.0 **** 0.06
1265 H 45.76519627792014 4.170285722632059 53.942134759836335 H 0.0 **** 0.06
1266 C 90.49231368677789 98.61121012477562 68.64820338082262 C 0.0 **** -0.24
1267 H 89.87217572530841 99.49365851819273 68.48733493249654 H 0.0 **** 0.06
1268 H 91.46510554213074 98.91700241967993 69.03240763552691 H 0.0 **** 0.06
1269 H 90.62309882325292 98.08237714982687 67.70336907560934 H 0.0 **** 0.06
1270 H 90.00641437682822 97.95279651607969 69.36830215606247 H 0.0 **** 0.06
1271 C 93.97134896398198 72.75854373918685 49.29997096620985 C 0.0 **** -0.24
1272 H 93.8605904778908 71.92922359932817 49.99826281374852 H 0.0 **** 0.06
1273 H 95.03049940497927 72.93123599550097 49.108454384407786 H 0.0 **** 0.06
1274 H 93.52816465669649 73.65740118136927 49.7292993490915 H 0.0 **** 0.06
1275 H 93.46710006045399 72.5157089139692 48.36471263482459 H 0.0 **** 0.06
1276 C 66.23537486462845 106.3668181146833 69.17796934414118 C 0.0 **** -0.24
1277 H 67.03134352930431 106.58207606005735 69.88947385427919 H 0.0 **** 0.06
1278 H 65.30212787557349 106.80485890135634 69.5327667794533 H 0.0 **** 0.06
1279 H 66.11578369828993 105.28727534373817 69.08067455808396 H 0.0 **** 0.06
1280 H 66.49062694055038 106.79240572515417 68.2075645729176 H 0.0 **** 0.06
1281 C 5.97584810495124 12.868869759864594 100.17399130186503 C 0.0 **** -0.24
1282 H 6.2296927040257515 12.600108104316348 99.14861578358219 H 0.0 **** 0.06
1283 H 6.89011307702998 13.065356244419547 100.73438090421769 H 0.0 **** 0.06
1284 H 5.4329099055813685 12.046602395154764 100.64082573982226 H 0.0 **** 0.06
1285 H 5.351883900925031 13.761647550976647 100.17148805068128 H 0.0 **** 0.06
1286 C 4.927475167437786 49.527631048445855 12.557880556530236 C 0.0 **** -0.24
1287 H 5.233689656948112 49.53385653336544 11.511709537112338 H 0.0 **** 0.06
1288 H 4.349645458055278 48.62528014494338 12.761872267663264 H 0.0 **** 0.06
1289 H 4.316039820783404 50.40578093319909 12.762722943589736 H 0.0 **** 0.06
1290 H 5.8124898033741506 49.54424085874691 13.194690668610434 H 0.0 **** 0.06
1291 C 44.60026991181098 65.12576224284248 50.70423840425681 C 0.0 **** -0.24
1292 H 43.60039104991296 65.30805705250333 50.309571760929316 H 0.0 **** 0.06
1293 H 44.5649454651556 64.29802255267094 51.41373620948124 H 0.0 **** 0.06
1294 H 44.961582681494946 66.02214008072235 51.20816668454532 H 0.0 **** 0.06
1295 H 45.27280979617839 64.87298146749447 49.88460626601244 H 0.0 **** 0.06
1296 C 103.6921630758632 11.409114563345412 24.832315666923634 C 0.0 **** -0.24
1297 H 104.64303048271275 11.313773743179667 25.357057689472327 H 0.0 **** 0.06
1298 H 102.88056413395651 11.110915542768993 25.495530815732607 H 0.0 **** 0.06
1299 H 103.69698355873881 10.767582014270829 23.951117837560176 H 0.0 **** 0.06
1300 H 103.549855189261 12.445528703442562 24.52572298284602 H 0.0 **** 0.06
1301 C 43.510835337170185 13.410144117468338 89.73540464143737 C 0.0 **** -0.24
1302 H 44.06533043417005 13.045903782338716 88.87065032907915 H 0.0 **** 0.06
1303 H 43.7941731357347 14.443199495493172 89.93821777378852 H 0.0 **** 0.06
1304 H 43.74184549733437 12.791642912945957 90.60188393117386 H 0.0 **** 0.06
1305 H 42.44171662015458 13.359886529590597 89.52727188418137 H 0.0 **** 0.06
1306 C 94.81697654904231 84.22613761241756 30.385706123737435 C 0.0 **** -0.24
1307 H 94.56661994518372 83.9894196231966 29.351919881621377 H 0.0 **** 0.06
1308 H 94.86472420407003 85.30794360365212 30.509951115807574 H 0.0 **** 0.06
1309 H 95.78509809458694 83.78852831264874 30.633693510471694 H 0.0 **** 0.06
1310 H 94.05340930014832 83.81722169568282 31.04687225821568 H 0.0 **** 0.06
1311 C 105.26017035590527 86.10632834845066 57.40168477218492 C 0.0 **** -0.24
1312 H 105.59569145502597 85.11392280899474 57.7025446956803 H 0.0 **** 0.06
1313 H 104.62211604310416 86.52625015607107 58.17954096250264 H 0.0 **** 0.06
1314 H 104.69667085625645 86.03211146762963 56.47090655181643 H 0.0 **** 0.06
1315 H 106.12433055124886 86.75275431559902 57.25255587329559 H 0.0 **** 0.06
1316 C 94.3187339841615 80.29470457345536 70.973947136927 C 0.0 **** -0.24
1317 H 93.88812221484272 81.20304763481988 70.55073758421526 H 0.0 **** 0.06
1318 H 94.09910835844121 79.45086676049402 70.3191172027527 H 0.0 **** 0.06
1319 H 93.88739537571496 80.11326710238569 71.95863101294535 H 0.0 **** 0.06
1320 H 95.39847537769444 80.41378573100684 71.06529853230194 H 0.0 **** 0.06
1321 C 100.49548905090609 102.11540102066967 69.2925243417775 C 0.0 **** -0.24
1322 H 99.94348131470065 101.69617712740259 68.45166310447269 H 0.0 **** 0.06
1323 H 100.60206508590682 101.35870397406002 70.07073515126524 H 0.0 **** 0.06
1324 H 99.95281823944686 102.97348648550107 69.69192101005183 H 0.0 **** 0.06
1325 H 101.48147431368756 102.43393070083327 68.95679576013731 H 0.0 **** 0.06
1326 C 14.614141697390664 84.3447455085803 32.09505033072247 C 0.0 **** -0.24
1327 H 13.740098674951042 84.93355712008568 31.81741473133303 H 0.0 **** 0.06
1328 H 15.264226322078883 84.94121386255267 32.73611772865047 H 0.0 **** 0.06
1329 H 15.156952946849486 84.05460676586071 31.195166256965877 H 0.0 **** 0.06
1330 H 14.294386337352307 83.45187718666159 32.63136225721718 H 0.0 **** 0.06
1331 C 106.73454666615689 39.407610619583295 105.50414533417197 C 0.0 **** -0.24
1332 H 105.97449168734634 38.92239638369199 106.11556203377005 H 0.0 **** 0.06
1333 H 106.25465893267202 39.92904460399819 104.67568999599338 H 0.0 **** 0.06
1334 H 107.42049542201588 38.657502798534665 105.11320758812874 H 0.0 **** 0.06
1335 H 107.28753040452018 40.1234229110658 106.11264811083649 H 0.0 **** 0.06
1336 C 81.43005180095963 47.877551509151445 70.40949294346638 C 0.0 **** -0.24
1337 H 82.05085062662602 46.98876372271175 70.30456503977305 H 0.0 **** 0.06
1338 H 81.3909728956117 48.40732197026291 69.45761008876946 H 0.0 **** 0.06
1339 H 81.85552199704898 48.530672755631386 71.17139556994967 H 0.0 **** 0.06
1340 H 80.42257926427703 47.584664236366606 70.7037376715508 H 0.0 **** 0.06
1341 C 11.538143261939354 77.95954208792679 0.01786827946733638 C 0.0 **** -0.24
1342 H 10.965147494264215 78.64691677041559 0.6411008324836729 H 0.0 **** 0.06
1343 H 11.813865420704076 78.45637757666543 -0.9119228883887587 H 0.0 **** 0.06
1344 H 10.931978142746402 77.08014546833245 -0.20419116138201332 H 0.0 **** 0.06
1345 H 12.440478367019523 77.65428554689998 0.5483800152645415 H 0.0 **** 0.06
1346 C 36.0934037529683 77.1586054488698 99.46432266987136 C 0.0 **** -0.24
1347 H 36.14177588869708 77.44663404813005 100.5144467214775 H 0.0 **** 0.06
1348 H 36.9838481648091 76.5859286223697 99.20298970832965 H 0.0 **** 0.06
1349 H 36.04251509346642 78.05370764306063 98.84471775537565 H 0.0 **** 0.06
1350 H 35.2061080905296 76.54866809011773 99.29455903757724 H 0.0 **** 0.06
1351 C 90.11839858295139 24.600962153128705 101.68406494796847 C 0.0 **** -0.24
1352 H 90.35079476421618 23.54251614441958 101.56847557205327 H 0.0 **** 0.06
1353 H 90.78727156006579 25.040265138049605 102.42596374464222 H 0.0 **** 0.06
1354 H 89.08596239754047 24.712434561313728 102.01445753147533 H 0.0 **** 0.06
1355 H 90.25149634038229 25.109387536025608 100.72866789724128 H 0.0 **** 0.06
1356 C 5.725306562661974 19.169200844630097 108.09707305899934 C 0.0 **** -0.24
1357 H 6.481185800103908 18.51128076077049 108.52602015388374 H 0.0 **** 0.06
1358 H 5.4830535319296505 18.833757839687394 107.08868011921732 H 0.0 **** 0.06
1359 H 6.110649982868381 20.187876928557785 108.05810732578288 H 0.0 **** 0.06
1360 H 4.8283770880499635 19.142972767551356 108.71551015823115 H 0.0 **** 0.06
1361 C 92.98569000785665 13.034160674495297 19.77736955011001 C 0.0 **** -0.24
1362 H 93.59964079573388 13.527477129702078 20.530299243836964 H 0.0 **** 0.06
1363 H 93.43548607063343 12.077392611109303 19.512171066673403 H 0.0 **** 0.06
1364 H 92.92170073218739 13.665253522029502 18.89010232502889 H 0.0 **** 0.06
1365 H 91.98533560474397 12.867270964223081 20.17718672280988 H 0.0 **** 0.06
1366 C 46.1959505094331 58.28022492764074 2.345005808215518 C 0.0 **** -0.24
1367 H 46.420087206196534 58.966138886722916 3.161699524047563 H 0.0 **** 0.06
1368 H 46.9067107164999 58.43871976864239 1.5333308566400916 H 0.0 **** 0.06
1369 H 45.18500448114813 58.46375236809202 1.9833407833323236 H 0.0 **** 0.06
1370 H 46.27386364333871 57.25386098003109 2.7014204203969427 H 0.0 **** 0.06
1371 C 92.03632540258889 23.381798730812022 3.777699888084598 C 0.0 **** -0.24
1372 H 91.93779061781328 23.110567408561053 4.828654841193 H 0.0 **** 0.06
1373 H 92.61863628268588 22.619630205147303 3.2592193429001384 H 0.0 **** 0.06
1374 H 92.54113457191016 24.3434616452015 3.6970282849792397 H 0.0 **** 0.06
1375 H 91.04610446963943 23.452337385584826 3.3268399326449014 H 0.0 **** 0.06
1376 C 50.122919028693005 31.224532628568035 17.518752004625753 C 0.0 **** -0.24
1377 H 49.66030737449734 31.19682491643495 16.532430262538412 H 0.0 **** 0.06
1378 H 50.667249639031255 32.16168382625001 17.637943929625777 H 0.0 **** 0.06
1379 H 50.813320407978836 30.38730069664664 17.62042541988461 H 0.0 **** 0.06
1380 H 49.34956312109911 31.153519792406215 18.284017130476883 H 0.0 **** 0.06
1381 C 25.39099265762006 32.468976576629 89.32457212522978 C 0.0 **** -0.24
1382 H 24.33403479851117 32.72167393276103 89.2478131882114 H 0.0 **** 0.06
1383 H 25.534941817372584 31.748739506574523 90.13073782051292 H 0.0 **** 0.06
1384 H 25.96482287843314 33.37100742309445 89.5376028834665 H 0.0 **** 0.06
1385 H 25.730939748050375 32.03546976176633 88.38398949476336 H 0.0 **** 0.06
1386 C 61.98523135618893 85.79502178081961 48.705844670031276 C 0.0 **** -0.24
1387 H 61.35422668115058 85.91372480763107 49.58626020799019 H 0.0 **** 0.06
1388 H 62.82006204926165 86.49397809246477 48.75964676330871 H 0.0 **** 0.06
1389 H 61.39902778616727 85.99717329677321 47.80915128596133 H 0.0 **** 0.06
1390 H 62.36727748729129 84.77509365036617 48.66738423053766 H 0.0 **** 0.06
1391 C 44.532922462947056 59.163741924353616 26.811526159275957 C 0.0 **** -0.24
1392 H 44.9093972037237 59.744211902389765 25.96914961275661 H 0.0 **** 0.06
1393 H 44.013920699014875 58.27949198204789 26.44060418819538 H 0.0 **** 0.06
1394 H 43.84298655809181 59.77411770088577 27.394214516475984 H 0.0 **** 0.06
1395 H 45.36761335492315 58.857229975911366 27.442307758177606 H 0.0 **** 0.06
1396 C 43.62237191290296 109.31702566940734 89.4215283219554 C 0.0 **** -0.24
1397 H 44.15214582435544 110.07050842201411 90.00395787455005 H 0.0 **** 0.06
1398 H 42.64952702487017 109.70693685016747 89.122135673667 H 0.0 **** 0.06
1399 H 43.48483992425221 108.42078198849745 90.0268588962312 H 0.0 **** 0.06
1400 H 44.20365892279426 109.06914595300097 88.53316468988737 H 0.0 **** 0.06
1401 C 86.92971759727922 23.428518593137255 0.46010529872182815 C 0.0 **** -0.24
1402 H 87.12464725699084 24.26929609118065 1.1270854875903211 H 0.0 **** 0.06
1403 H 85.90386059721259 23.486374052631916 0.09381973613787409 H 0.0 **** 0.06
1404 H 87.07127644492707 22.494507035975673 1.0026735454732574 H 0.0 **** 0.06
1405 H 87.62017244767384 23.467469646085306 -0.38291653931948133 H 0.0 **** 0.06
1406 C 19.98970723500034 30.086672819573685 89.81734815505155 C 0.0 **** -0.24
1407 H 19.79327245557056 29.076864643289944 89.45762372166934 H 0.0 **** 0.06
1408 H 20.461989940985916 30.66831030369896 89.02546573809349 H 0.0 **** 0.06
1409 H 20.65400784159175 30.041980428148925 90.68088865889325 H 0.0 **** 0.06
1410 H 19.050538227630625 30.558848191132412 90.10616794731192 H 0.0 **** 0.06
1411 C 107.26952471450625 72.28109437852665 13.362285370392893 C 0.0 **** -0.24
1412 H 107.12578747543061 71.2598682541447 13.008388906489358 H 0.0 **** 0.06
1413 H 108.1743190032929 72.69542205080063 12.917307000844712 H 0.0 **** 0.06
1414 H 107.36559785668683 72.27856303456608 14.448581584653663 H 0.0 **** 0.06
1415 H 106.4111814809998 72.88882333867969 13.075661444887157 H 0.0 **** 0.06
1416 C 106.87384795231145 66.85744154493236 99.66612275827703 C 0.0 **** -0.24
1417 H 107.42809622147189 66.76980934540475 100.59995371622816 H 0.0 **** 0.06
1418 H 107.15501373744422 66.04279406848138 98.99886857484417 H 0.0 **** 0.06
1419 H 107.10771982330053 67.81189573786139 99.19317660167965 H 0.0 **** 0.06
1420 H 105.80497243037172 66.80649575982318 99.87192479015428 H 0.0 **** 0.06
1421 C 16.819731208904074 48.07596885156596 97.18688125478748 C 0.0 **** -0.24
1422 H 16.514681114746537 49.1216938433065 97.22895925537104 H 0.0 **** 0.06
1423 H 16.136292665950776 47.47405270423394 97.7864858021909 H 0.0 **** 0.06
1424 H 17.831094895069015 47.977995111628445 97.58035611175151 H 0.0 **** 0.06
1425 H 16.797301183188324 47.732887247160306 96.15282867449984 H 0.0 **** 0.06
1426 C 108.75021304935225 18.350204362813884 52.13550358076802 C 0.0 **** -0.24
1427 H 108.36427634068069 19.129830301357657 52.79213902591641 H 0.0 **** 0.06
1428 H 109.18438144027033 18.806548256994745 51.2444373356887 H 0.0 **** 0.06
1429 H 107.93792855250297 17.685133283399637 51.844149560976746 H 0.0 **** 0.06
1430 H 109.51632120530516 17.77870166167969 52.66064725566011 H 0.0 **** 0.06
1431 C 63.64761727608882 58.823031064086514 32.51840339985254 C 0.0 **** -0.24
1432 H 63.43839701886023 58.06487308037179 33.273418793674225 H 0.0 **** 0.06
1433 H 64.4990693225602 59.4267520155135 32.83676549329728 H 0.0 **** 0.06
1434 H 62.77394920078538 59.46293065164643 32.394930848543915 H 0.0 **** 0.06
1435 H 63.88058654014313 58.33686454360271 31.570979362395263 H 0.0 **** 0.06
1436 C 5.003829370191454 81.23934995119657 48.60427636411317 C 0.0 **** -0.24
1437 H 5.8241637811648275 81.70027672474686 49.15453251442806 H 0.0 **** 0.06
1438 H 5.333786094381139 80.28486399373566 48.19409959326357 H 0.0 **** 0.06
1439 H 4.695926483597873 81.89802033173947 47.79256152669766 H 0.0 **** 0.06
1440 H 4.162956985190874 81.07431697044899 49.27755385971466 H 0.0 **** 0.06
1441 C 75.25564726699423 61.13919485143241 81.11476060971265 C 0.0 **** -0.24
1442 H 75.40541321435217 61.405150283534226 80.06752337777998 H 0.0 **** 0.06
1443 H 74.7198749724617 61.943345580144324 81.62008680627896 H 0.0 **** 0.06
1444 H 76.22378114477465 60.99075706514037 81.59302400907178 H 0.0 **** 0.06
1445 H 74.67419774892585 60.21925077991011 81.17604868557409 H 0.0 **** 0.06
1446 C 26.506530215836733 81.92733914249379 10.25499083052625 C 0.0 **** -0.24
1447 H 27.225673083521485 81.97412143015742 9.438156856598567 H 0.0 **** 0.06
1448 H 26.264721666084938 82.93930343305237 10.583955714586958 H 0.0 **** 0.06
1449 H 26.93668187885089 81.36843542270617 11.086527407906383 H 0.0 **** 0.06
1450 H 25.599167512237983 81.42966069132365 9.913140081921545 H 0.0 **** 0.06
1451 C 86.56256118635834 87.25460266019968 105.29199323968271 C 0.0 **** -0.24
1452 H 87.63235645807927 87.08245668730962 105.40802632576828 H 0.0 **** 0.06
1453 H 86.05389785822626 87.02619269679462 106.22877036809558 H 0.0 **** 0.06
1454 H 86.17440106687788 86.61119901036881 104.50205377679072 H 0.0 **** 0.06
1455 H 86.38915216157959 88.29767273580359 105.02898953638828 H 0.0 **** 0.06
1456 C 45.83660210947851 29.965417092791085 101.1713864533207 C 0.0 **** -0.24
1457 H 46.41786370544034 29.099307080078688 101.4876272827137 H 0.0 **** 0.06
1458 H 45.735802971684336 29.95966119803083 100.0860578080336 H 0.0 **** 0.06
1459 H 46.34520619252667 30.877572524405025 101.48390882397318 H 0.0 **** 0.06
1460 H 44.84746956790498 29.925441781586812 101.62889898025306 H 0.0 **** 0.06
1461 C 12.753948340267584 106.32639053571232 7.794380975801255 C 0.0 **** -0.24
1462 H 13.651361122638846 106.65564684424378 7.27018972622505 H 0.0 **** 0.06
1463 H 13.038971065416021 105.77603837432372 8.691018810750023 H 0.0 **** 0.06
1464 H 12.168068084028235 105.6801569189955 7.140466363712205 H 0.0 **** 0.06
1465 H 12.158245926743746 107.19528292922266 8.074496159488275 H 0.0 **** 0.06
1466 C 24.091104239475776 96.40701451101701 88.92260622952642 C 0.0 **** -0.24
1467 H 23.697857370049526 97.0578609037236 89.70359838095715 H 0.0 **** 0.06
1468 H 23.462028830090368 96.48294463531683 88.03530997504538 H 0.0 **** 0.06
1469 H 24.096243770385904 95.37612414408834 89.27851993534728 H 0.0 **** 0.06
1470 H 25.10794968539331 96.71073840447673 88.6749290758533 H 0.0 **** 0.06
1471 C 16.723221207851054 68.90821643213064 3.942567976003602 C 0.0 **** -0.24
1472 H 16.153929897733462 68.51072677404863 4.782937686099558 H 0.0 **** 0.06
1473 H 17.78762792763021 68.86408272703466 4.171291325841764 H 0.0 **** 0.06
1474 H 16.43201638021732 69.9434445479846 3.76331288969169 H 0.0 **** 0.06
1475 H 16.51728810955632 68.31354642173142 3.051849689248172 H 0.0 **** 0.06
1476 C 80.11679653602094 3.8745898348744277 46.08083013678629 C 0.0 **** -0.24
1477 H 80.96801150805996 3.523293514662953 46.66359922056722 H 0.0 **** 0.06
1478 H 79.5797576641284 4.6373232109159375 46.645212046556765 H 0.0 **** 0.06
1479 H 79.44868802109336 3.0379180511919657 45.87258920956276 H 0.0 **** 0.06
1480 H 80.47031860858166 4.299346177674735 45.14065402697696 H 0.0 **** 0.06
1481 C 9.124728273342171 39.87192294629082 86.79809079343647 C 0.0 **** -0.24
1482 H 9.549890036569508 39.23080936054066 86.02565586054612 H 0.0 **** 0.06
1483 H 9.862294425704164 40.0307735543652 87.584043375894 H 0.0 **** 0.06
1484 H 8.23967480739772 39.39503211662844 87.22029975478551 H 0.0 **** 0.06
1485 H 8.846675510616151 40.83096640873305 86.36100594752236 H 0.0 **** 0.06
1486 C 49.81910483801849 92.80108655189811 19.77738855456576 C 0.0 **** -0.24
1487 H 49.303388589055906 93.39436934635171 20.533925565137906 H 0.0 **** 0.06
1488 H 49.90851282247562 93.38189344699353 18.859735901169557 H 0.0 **** 0.06
1489 H 49.25050734029746 91.89264179901572 19.57927276488533 H 0.0 **** 0.06
1490 H 50.812781143412714 92.53719348467443 20.139343951810957 H 0.0 **** 0.06
1491 C 95.58636310231624 87.93936534491094 33.875273309525994 C 0.0 **** -0.24
1492 H 95.47119409409363 86.88995413395492 33.60591848308252 H 0.0 **** 0.06
1493 H 96.1674673947468 88.4491400051569 33.10641799831791 H 0.0 **** 0.06
1494 H 96.102469002231 88.01441324481479 34.83236440868012 H 0.0 **** 0.06
1495 H 94.60362580521593 88.4033951945574 33.95529541271128 H 0.0 **** 0.06
1496 C 37.54114657059949 36.99892650272619 79.08796788433864 C 0.0 **** -0.24
1497 H 37.70568301277618 35.92124158007755 79.10466705785724 H 0.0 **** 0.06
1498 H 36.71065287639272 37.228844641313685 78.41908386585932 H 0.0 **** 0.06
1499 H 38.44234852631092 37.49834422701764 78.73386510406262 H 0.0 **** 0.06
1500 H 37.30416788982894 37.34557926787437 80.09391462060583 H 0.0 **** 0.06
1501 C 32.02829774040494 2.0008461710611414 37.661383392711734 C 0.0 **** -0.24
1502 H 32.64161804499564 1.480732214503547 36.92545707323726 H 0.0 **** 0.06
1503 H 32.673280855428466 2.4753317698558135 38.40168070770203 H 0.0 **** 0.06
1504 H 31.370557470472434 1.2860399600375132 38.15626287280881 H 0.0 **** 0.06
1505 H 31.428174636443067 2.7619280736973195 37.16095503011605 H 0.0 **** 0.06
1506 C 26.57271180481149 29.708029976948964 37.84720500704367 C 0.0 **** -0.24
1507 H 25.937340218953324 29.02025899934884 38.40470735274562 H 0.0 **** 0.06
1508 H 26.048746941867023 30.042327640864244 36.95217778889099 H 0.0 **** 0.06
1509 H 27.494231808219467 29.200521748784155 37.560645792374075 H 0.0 **** 0.06
1510 H 26.81138242359293 30.56850254013196 38.4727073597179 H 0.0 **** 0.06
1511 C 19.92009610944166 72.67959678657937 91.63752788187278 C 0.0 **** -0.24
1512 H 19.430158314487073 73.15626999280875 90.7886654306692 H 0.0 **** 0.06
1513 H 20.96975883870772 72.97361604868047 91.66270187247255 H 0.0 **** 0.06
1514 H 19.84696406556492 71.59653758523967 91.53800229609489 H 0.0 **** 0.06
1515 H 19.4325892015176 72.99338442247432 92.56112370784719 H 0.0 **** 0.06
1516 C 0.6698638219728652 47.657309673501885 61.14465824733881 C 0.0 **** -0.24
1517 H 0.5028877164753771 47.836701658745596 62.20615591412617 H 0.0 **** 0.06
1518 H -0.19372858179403352 47.14167903608234 60.72334230612158 H 0.0 **** 0.06
1519 H 1.5596083650325143 47.04058817599591 61.016197649170806 H 0.0 **** 0.06
1520 H 0.8107588582357499 48.60927233906011 60.63293221926422 H 0.0 **** 0.06
1521 C 86.29019384149795 108.66395517153582 7.980308487885111 C 0.0 **** -0.24
1522 H 86.61194024374888 109.6910780086865 8.148396936778923 H 0.0 **** 0.06
1523 H 85.90432059887019 108.56585380726919 6.965098224262022 H 0.0 **** 0.06
1524 H 85.50695679731831 108.40700518779832 8.692982513232621 H 0.0 **** 0.06
1525 H 87.13812594862065 107.99107363725743 8.113745807528389 H 0.0 **** 0.06
1526 C 107.75402352091281 66.34608655577307 11.967892014812165 C 0.0 **** -0.24
1527 H 108.08076170680421 66.26433765066872 10.931229997546755 H 0.0 **** 0.06
1528 H 107.58656358832633 65.34825541510683 12.375884847295005 H 0.0 **** 0.06
1529 H 106.82651312874418 66.91766339259188 12.012950866562345 H 0.0 **** 0.06
1530 H 108.52274099432277 66.85289927644061 12.552091658557377 H 0.0 **** 0.06
1531 C 77.06584879186596 53.40320776635346 57.00462306282526 C 0.0 **** -0.24
1532 H 77.96150852767153 52.899466476348124 56.64362012145955 H 0.0 **** 0.06
1533 H 77.22093876613485 54.48166631925696 56.979283443610825 H 0.0 **** 0.06
1534 H 76.85885855734324 53.09004889296773 58.027315275696196 H 0.0 **** 0.06
1535 H 76.22081865200505 53.14261221269243 56.36670541593372 H 0.0 **** 0.06
1536 C 44.53520760853707 64.43438692374211 46.74611147828034 C 0.0 **** -0.24
1537 H 45.05527441564338 63.8317945825798 47.49079990446765 H 0.0 **** 0.06
1538 H 45.2501386336104 65.08368934333893 46.24125225446727 H 0.0 **** 0.06
1539 H 43.77505909320344 65.04214975804953 47.23752725372205 H 0.0 **** 0.06
1540 H 44.060708155758604 63.778289458391555 46.016362719595236 H 0.0 **** 0.06
1541 C 23.95872737077883 76.48840237279948 38.23989902781824 C 0.0 **** -0.24
1542 H 23.10901845940856 76.75560265271395 38.868373890899306 H 0.0 **** 0.06
1543 H 23.898409666239672 75.43127175570216 37.978180527501706 H 0.0 **** 0.06
1544 H 24.88519240710164 76.67504095106902 38.78240931389695 H 0.0 **** 0.06
1545 H 23.941675762301543 77.09005385839612 37.331598661558075 H 0.0 **** 0.06
1546 C 24.264994312870385 44.091783421961054 77.26226671109345 C 0.0 **** -0.24
1547 H 25.294892183315312 43.795164314337796 77.0664190877171 H 0.0 **** 0.06
1548 H 23.613105067841985 43.22229170056474 77.17628743964636 H 0.0 **** 0.06
1549 H 23.96011624611873 44.84677262556011 76.53734150895701 H 0.0 **** 0.06
1550 H 24.190046711790558 44.504134221145534 78.26858552240606 H 0.0 **** 0.06
1551 C 100.42328120659035 6.977644896439315 51.511572911610465 C 0.0 **** -0.24
1552 H 99.80933103732485 7.863846187121043 51.67193288307258 H 0.0 **** 0.06
1553 H 100.39788006252756 6.351694053108643 52.40365205327306 H 0.0 **** 0.06
1554 H 101.45115849865421 7.281140692609753 51.30925012372585 H 0.0 **** 0.06
1555 H 100.0360972026028 6.416804656590582 50.66058779903037 H 0.0 **** 0.06
1556 C 94.20408457465612 21.404333691576 68.59327333161639 C 0.0 **** -0.24
1557 H 94.72577012559282 22.262439434887 68.17072093188779 H 0.0 **** 0.06
1558 H 93.13425965311427 21.50137117044372 68.40421697328662 H 0.0 **** 0.06
1559 H 94.3808449304347 21.365545902925305 69.66753032215773 H 0.0 **** 0.06
1560 H 94.57396549629755 20.489633603676623 68.13049941942164 H 0.0 **** 0.06
1561 C 87.22323082981276 45.13963657393356 74.20154469786785 C 0.0 **** -0.24
1562 H 87.73550212694278 45.707022639956904 73.42368539277265 H 0.0 **** 0.06
1563 H 87.92115949775012 44.437664254975346 74.65775330797344 H 0.0 **** 0.06
1564 H 86.39032553786944 44.591456764505324 73.76137708383641 H 0.0 **** 0.06
1565 H 86.84641464994041 45.82412049658586 74.96168363274533 H 0.0 **** 0.06
1566 C 101.11666122133852 61.99184550167166 44.45896635644755 C 0.0 **** -0.24
1567 H 100.99498993130254 63.00570351215555 44.077827419885026 H 0.0 **** 0.06
1568 H 100.14369717591507 61.59426632776854 44.749119196295496 H 0.0 **** 0.06
1569 H 101.77590270780095 62.00715140099908 45.326877789354825 H 0.0 **** 0.06
1570 H 101.5509756074319 61.36228437544028 43.683696363145344 H 0.0 **** 0.06
1571 C 23.352578567926344 11.007646388756768 5.199110282033047 C 0.0 **** -0.24
1572 H 23.948813333115538 11.382466814015572 6.029846412306682 H 0.0 **** 0.06
1573 H 22.967415413614788 11.8476747179281 4.620143384445996 H 0.0 **** 0.06
1574 H 22.520058843222614 10.419954915244773 5.584515846388399 H 0.0 **** 0.06
1575 H 23.97439411240714 10.380639012133429 4.558961771935799 H 0.0 **** 0.06
1576 C 9.052251421990206 46.64307876032257 104.0347872887375 C 0.0 **** -0.24
1577 H 9.716366147881075 47.49348961975875 104.18507967554325 H 0.0 **** 0.06
1578 H 8.01598992647358 46.97963448421052 104.07328722517263 H 0.0 **** 0.06
1579 H 9.223999361137885 45.904335322032466 104.81820332417618 H 0.0 **** 0.06
1580 H 9.253250877517956 46.193678142230624 103.06207603261299 H 0.0 **** 0.06
1581 C 103.23138941156792 3.5153001448932173 1.704977322000218 C 0.0 **** -0.24
1582 H 103.31157816186442 4.600111684899957 1.7687857183855726 H 0.0 **** 0.06
1583 H 104.22309396226743 3.071406086525414 1.7898595562315904 H 0.0 **** 0.06
1584 H 102.7903284324417 3.2397851596718255 0.7461438363061461 H 0.0 **** 0.06
1585 H 102.59901856554228 3.150133691617185 2.513228742611716 H 0.0 **** 0.06
1586 C 7.016059275590976 31.431879365141242 67.91409864390229 C 0.0 **** -0.24
1587 H 6.646128042867872 30.866967999618637 67.05751941538084 H 0.0 **** 0.06
1588 H 6.217434254193279 31.541734843808058 68.64784432176803 H 0.0 **** 0.06
1589 H 7.347585174422306 32.41588947453232 67.58435254815902 H 0.0 **** 0.06
1590 H 7.852914847845284 30.89853267473967 68.36538340906745 H 0.0 **** 0.06
1591 C 43.50004122520278 76.614709646628 89.19393846758146 C 0.0 **** -0.24
1592 H 43.91315425381265 76.60709391057947 88.18541257464511 H 0.0 **** 0.06
1593 H 43.56689264763773 75.6141957189235 89.62107617752855 H 0.0 **** 0.06
1594 H 42.45623372982658 76.9253669243534 89.15647115930531 H 0.0 **** 0.06
1595 H 44.06474289454286 77.31325695776698 89.81246624221302 H 0.0 **** 0.06
1596 C 31.8954807594651 84.98882096832145 5.660416581681323 C 0.0 **** -0.24
1597 H 31.596596689158332 84.03084737459517 6.085219759472119 H 0.0 **** 0.06
1598 H 32.94772281996677 85.17208718802976 5.879998109614856 H 0.0 **** 0.06
1599 H 31.289282682039584 85.78368484807916 6.096873051413207 H 0.0 **** 0.06
1600 H 31.74678691688436 84.9700201267062 4.580475118316521 H 0.0 **** 0.06
1601 C 52.5506162438747 5.377529246783348 81.35829013519901 C 0.0 **** -0.24
1602 H 51.68856897565074 5.670735925601802 80.75885020484981 H 0.0 **** 0.06
1603 H 52.21057876588163 4.85135758257087 82.2500040655325 H 0.0 **** 0.06
1604 H 53.10892763971511 6.266522494973538 81.65034700363756 H 0.0 **** 0.06
1605 H 53.194366376244766 4.721392542814858 80.77151222801166 H 0.0 **** 0.06
1606 C 75.6549437206663 53.104795174041996 74.67244967813247 C 0.0 **** -0.24
1607 H 75.25758763539238 52.577101864955104 75.53896726704644 H 0.0 **** 0.06
1608 H 74.99442626078864 53.93528998265827 74.41940616965957 H 0.0 **** 0.06
1609 H 75.7176144897415 52.41968926472472 73.8271745066859 H 0.0 **** 0.06
1610 H 76.64838542649014 53.48798720327758 74.90458387792899 H 0.0 **** 0.06
1611 C 6.557277094632823 44.70097460193627 69.53835780442948 C 0.0 **** -0.24
1612 H 5.592752120059572 44.82833207942152 69.04797075785304 H 0.0 **** 0.06
1613 H 7.241149362079312 45.480016302285115 69.20107212955774 H 0.0 **** 0.06
1614 H 6.966075912487199 43.72214707847546 69.28498627033214 H 0.0 **** 0.06
1615 H 6.428222129496817 44.77218028980955 70.61857789960114 H 0.0 **** 0.06
1616 C 102.24789680813332 14.520983447965563 53.400025357510174 C 0.0 **** -0.24
1617 H 101.53765221469449 14.646535218692975 52.58232781549208 H 0.0 **** 0.06
1618 H 101.82655649384903 13.846848129316157 54.14572085322675 H 0.0 **** 0.06
1619 H 102.44973749986207 15.489356562179026 53.857871085323325 H 0.0 **** 0.06
1620 H 103.17649306930508 14.101315180879482 53.012548371246055 H 0.0 **** 0.06
1621 C 15.004682833207738 92.31580848730465 62.58906940199398 C 0.0 **** -0.24
1622 H 15.794556526786977 92.17776827531333 61.85105565721477 H 0.0 **** 0.06
1623 H 15.193992358880791 93.2250377303408 63.1593569905408 H 0.0 **** 0.06
1624 H 14.985852942135566 91.46007603165745 63.264633838844816 H 0.0 **** 0.06
1625 H 14.043971826471108 92.39848780367527 62.08060075264524 H 0.0 **** 0.06
1626 C 105.03340523310722 9.664982294021726 16.439054511550225 C 0.0 **** -0.24
1627 H 104.66122353014592 10.060326227414535 17.38368871082643 H 0.0 **** 0.06
1628 H 104.21355780154295 9.601989804177904 15.724093003390266 H 0.0 **** 0.06
1629 H 105.45118468236348 8.67122625135768 16.60165261702545 H 0.0 **** 0.06
1630 H 105.80732670921223 10.325769554696578 16.048368429644057 H 0.0 **** 0.06
1631 C 5.615991376350166 103.29548211966505 14.21852985186106 C 0.0 **** -0.24
1632 H 6.506720696579876 103.9185854773063 14.130396926236678 H 0.0 **** 0.06
1633 H 5.868858665781232 102.2642992208198 13.973620103799782 H 0.0 **** 0.06
1634 H 4.85077632244662 103.65698054957647 13.532100950983935 H 0.0 **** 0.06
1635 H 5.239131926306953 103.34486997989882 15.240968966813117 H 0.0 **** 0.06
1636 C 36.76253921291277 75.59317477968918 45.44882160019578 C 0.0 **** -0.24
1637 H 36.64080579682468 74.66294791257188 44.895522653715936 H 0.0 **** 0.06
1638 H 36.206332023885636 76.387576418163 44.9509114923456 H 0.0 **** 0.06
1639 H 37.81905765430645 75.85685356808177 45.487899757352395 H 0.0 **** 0.06
1640 H 36.38215349147029 75.46411567995412 46.46302099211002 H 0.0 **** 0.06
1641 C 1.7892853199717393 104.68940531321705 67.17135210550184 C 0.0 **** -0.24
1642 H 2.33767161708856 105.36217864747852 66.510960221185 H 0.0 **** 0.06
1643 H 0.9761398194133051 105.23480710831434 67.65136792688801 H 0.0 **** 0.06
1644 H 2.464066379553117 104.29790273754993 67.93240144898303 H 0.0 **** 0.06
1645 H 1.379245110279527 103.86367705426711 66.58922688857923 H 0.0 **** 0.06
1646 C 100.88230435784318 69.21259394636901 0.26220632723658266 C 0.0 **** -0.24
1647 H 100.50325229409458 69.37319282777 -0.7461052811412081 H 0.0 **** 0.06
1648 H 100.6241299415947 70.067498988076 0.8878461959935464 H 0.0 **** 0.06
1649 H 101.96635213633606 69.09989462869041 0.23006320541050496 H 0.0 **** 0.06
1650 H 100.43523415166861 68.30895785404009 0.6781377788485585 H 0.0 **** 0.06
1651 C 30.17445513960311 22.226820451169473 45.00810698702381 C 0.0 **** -0.24
1652 H 30.60939896561534 22.941823534181523 45.707362580726254 H 0.0 **** 0.06
1653 H 30.359678203460476 22.55925605690146 43.98646376581536 H 0.0 **** 0.06
1654 H 29.09921635378769 22.160179412034736 45.17902647819869 H 0.0 **** 0.06
1655 H 30.627899222844675 21.24808930130108 45.161017430720875 H 0.0 **** 0.06
1656 C 36.17590202311666 31.097751155873596 27.07523920332727 C 0.0 **** -0.24
1657 H 36.38577052809319 30.076923553366413 26.75322807736069 H 0.0 **** 0.06
1658 H 35.280539480843686 31.46055294441973 26.56999305860367 H 0.0 **** 0.06
1659 H 37.020195696076826 31.738851936776513 26.82326934873248 H 0.0 **** 0.06
1660 H 36.01655622305336 31.113203710758512 28.1528745496675 H 0.0 **** 0.06
1661 C 86.78616462445159 1.9188046108184267 66.03406055803698 C 0.0 **** -0.24
1662 H 87.70968570080265 1.769780277054565 66.59379124993072 H 0.0 **** 0.06
1663 H 85.93267519952488 1.7509517171352513 66.69025414736568 H 0.0 **** 0.06
1664 H 86.74929983273076 1.216088572803244 65.20178896317466 H 0.0 **** 0.06
1665 H 86.75591128559911 2.9383921606869876 65.64969246305274 H 0.0 **** 0.06
1666 C 60.5224099285557 96.47810024205312 28.797631640387237 C 0.0 **** -0.24
1667 H 61.13137257341032 95.72953684142682 28.2895556064514 H 0.0 **** 0.06
1668 H 59.58816583367667 96.0229803557822 29.127168808784063 H 0.0 **** 0.06
1669 H 60.30643969340372 97.29727365133287 28.11103081294064 H 0.0 **** 0.06
1670 H 61.065048390630466 96.86158492323425 29.661347932574046 H 0.0 **** 0.06
1671 C 39.62801116479915 17.949861168924336 68.03144970413888 C 0.0 **** -0.24
1672 H 38.762879285844704 18.61026570260513 68.09957167561288 H 0.0 **** 0.06
1673 H 40.26239672078254 18.26615203232652 67.20315027619884 H 0.0 **** 0.06
1674 H 39.292030694795365 16.927200662233137 67.86221779752648 H 0.0 **** 0.06
1675 H 40.194499557038164 17.997314207335737 68.96171310562687 H 0.0 **** 0.06
1676 C 77.17405547988562 58.904601726444604 54.55442475031633 C 0.0 **** -0.24
1677 H 76.18547498449283 59.00776427877879 54.10563302026818 H 0.0 **** 0.06
1678 H 77.06915784571805 58.663738862341376 55.61272266464786 H 0.0 **** 0.06
1679 H 77.72075023377286 59.841264880753116 54.44736484383146 H 0.0 **** 0.06
1680 H 77.71937365724546 58.10654736044262 54.05214584313313 H 0.0 **** 0.06
1681 C 61.18817569664856 69.16570860760623 1.832308332861075 C 0.0 **** -0.24
1682 H 60.13781296250232 68.90820193598694 1.6939452795900678 H 0.0 **** 0.06
1683 H 61.324423165316375 69.61675551545778 2.815827645177208 H 0.0 **** 0.06
1684 H 61.49368251319464 69.8735269071345 1.0619345994843883 H 0.0 **** 0.06
1685 H 61.795060781390646 68.26325270239204 1.759481872764482 H 0.0 **** 0.06
1686 C 67.51581947840997 32.492361175652604 46.777083931646644 C 0.0 **** -0.24
1687 H 68.18202646106724 32.894193767384365 46.013124685971206 H 0.0 **** 0.06
1688 H 66.68966597964973 33.184975953389824 46.9390501258836 H 0.0 **** 0.06
1689 H 68.06886413240191 32.36133458040075 47.707729168088946 H 0.0 **** 0.06
1690 H 67.1245988361008 31.530384496652516 46.447807329611805 H 0.0 **** 0.06
1691 C 20.182205571919976 92.60411726645532 21.79215845357119 C 0.0 **** -0.24
1692 H 20.303325945238726 93.27512213554631 20.942058954332026 H 0.0 **** 0.06
1693 H 21.102358455605703 92.0400336170454 21.942538438584137 H 0.0 **** 0.06
1694 H 19.36006619657244 91.91505552260615 21.597423632154246 H 0.0 **** 0.06
1695 H 19.962242144506504 93.18732846833336 22.68701973168251 H 0.0 **** 0.06
1696 C 87.25077610961068 14.969979838453185 14.349265878847802 C 0.0 **** -0.24
1697 H 87.98997860532302 15.614793930042879 14.825687304141582 H 0.0 **** 0.06
1698 H 86.36459251591634 15.55439005862786 14.102987242359802 H 0.0 **** 0.06
1699 H 86.97842080585201 14.163930998964403 15.030662037247168 H 0.0 **** 0.06
1700 H 87.67211665879398 14.547490683574097 13.436497029720272 H 0.0 **** 0.06
1701 C 27.081528756952423 22.796579213405845 102.62894768289175 C 0.0 **** -0.24
1702 H 26.384547578899145 23.383842066196127 102.03235873980555 H 0.0 **** 0.06
1703 H 27.909131174752957 23.429941701148977 102.94973905438037 H 0.0 **** 0.06
1704 H 27.465719575700575 21.97015169941653 102.03021661648997 H 0.0 **** 0.06
1705 H 26.565986481797438 22.40101601768873 103.50425265798947 H 0.0 **** 0.06
1706 C 16.057180760944973 40.75283067437613 39.69157275852197 C 0.0 **** -0.24
1707 H 15.726908321575678 40.79025678240305 38.65291625885879 H 0.0 **** 0.06
1708 H 17.140943799266523 40.85924145675051 39.73196156249832 H 0.0 **** 0.06
1709 H 15.769018114398705 39.798088743680694 40.13004161139102 H 0.0 **** 0.06
1710 H 15.590898277057306 41.564505864159685 40.249501845434324 H 0.0 **** 0.06
1711 C 104.84670692025448 6.9467289251784194 64.10706092648223 C 0.0 **** -0.24
1712 H 104.62246865102709 7.868243290895606 64.64506127594434 H 0.0 **** 0.06
1713 H 105.83842386854474 6.593367404762546 64.39093067765135 H 0.0 **** 0.06
1714 H 104.822344573135 7.137539328639491 63.03366361752205 H 0.0 **** 0.06
1715 H 104.10506979883664 6.1892813707262775 64.35930566858127 H 0.0 **** 0.06
1716 C 108.53613632551514 18.599349573035113 76.96988580923659 C 0.0 **** -0.24
1717 H 108.12200350786134 18.335056854918463 77.94299024405228 H 0.0 **** 0.06
1718 H 108.45569563331293 19.676711368530533 76.82060490815644 H 0.0 **** 0.06
1719 H 107.98183265615211 18.081497780780353 76.18729727424784 H 0.0 **** 0.06
1720 H 109.58501350473426 18.304132287910917 76.92865081048967 H 0.0 **** 0.06
1721 C 45.382150324922684 3.437967207414445 4.733497600124224 C 0.0 **** -0.24
1722 H 45.65552327481701 4.459018289681296 4.464429097781476 H 0.0 **** 0.06
1723 H 45.8881477456285 2.739240331880879 4.066001299555182 H 0.0 **** 0.06
1724 H 44.30338730419186 3.314138329924589 4.639883477913656 H 0.0 **** 0.06
1725 H 45.68325083261232 3.241097860741945 5.761821842213067 H 0.0 **** 0.06
1726 C 2.8793538528265774 66.44265751464548 92.84577852860525 C 0.0 **** -0.24
1727 H 3.1223196716433987 66.85074938469543 93.82729446915509 H 0.0 **** 0.06
1728 H 1.8005085605015614 66.30260539171564 92.76886190111153 H 0.0 **** 0.06
1729 H 3.3811127518213446 65.48391373270624 92.71716592814079 H 0.0 **** 0.06
1730 H 3.212023855091953 67.13459160162569 92.07285505873024 H 0.0 **** 0.06
1731 C 85.99487890353353 73.7250374493507 74.64046134069855 C 0.0 **** -0.24
1732 H 85.3348871581307 73.91419117551881 75.48681859783889 H 0.0 **** 0.06
1733 H 85.68432446332957 72.80878197767419 74.1365290005285 H 0.0 **** 0.06
1734 H 87.01912881556322 73.61453984069618 74.99698802230773 H 0.0 **** 0.06
1735 H 85.93970362933453 74.56021881296968 73.94350685589379 H 0.0 **** 0.06
1736 C 65.42878559133766 41.70725511630283 56.2581023469408 C 0.0 **** -0.24
1737 H 64.41214221613114 41.87687501021787 56.611600808892376 H 0.0 **** 0.06
1738 H 66.05756347977582 42.55184826955636 56.54118832717387 H 0.0 **** 0.06
1739 H 65.42271931195579 41.60729392643904 55.17244731309495 H 0.0 **** 0.06
1740 H 65.82197890389948 40.79427508525998 56.70548848260995 H 0.0 **** 0.06
1741 C 77.01448189769076 59.441857692838795 4.046426170215014 C 0.0 **** -0.24
1742 H 77.81562638072666 59.0444202482436 3.4243081792232033 H 0.0 **** 0.06
1743 H 76.41057670952904 58.61916502237102 4.4309612412867665 H 0.0 **** 0.06
1744 H 76.38830644407119 60.10608631671107 3.4513224253008445 H 0.0 **** 0.06
1745 H 77.44409829059401 59.997940680398415 4.879823039319291 H 0.0 **** 0.06
1746 C 89.73903593818982 36.29183387622251 83.60229677759486 C 0.0 **** -0.24
1747 H 89.48897125685257 35.23186220419382 83.5820855770181 H 0.0 **** 0.06
1748 H 89.581764773693 36.68306247738673 84.6079437714185 H 0.0 **** 0.06
1749 H 89.1018639739245 36.82857239911124 82.89908092635885 H 0.0 **** 0.06
1750 H 90.7841064152642 36.42510103333919 83.32037570533075 H 0.0 **** 0.06
1751 C 48.13272184403714 54.663292190265395 60.62148600678378 C 0.0 **** -0.24
1752 H 47.907520167334745 54.54485046516143 61.68115416381427 H 0.0 **** 0.06
1753 H 49.01168315317839 55.29798047017508 60.5055605812142 H 0.0 **** 0.06
1754 H 47.28224355754677 55.125729881897 60.119153449474524 H 0.0 **** 0.06
1755 H 48.32777040125381 53.685707028444824 60.18002117229875 H 0.0 **** 0.06
1756 C 15.407476984213474 17.215931279990627 103.69318177133131 C 0.0 **** -0.24
1757 H 14.548328423516807 17.645762006756144 103.17776525798453 H 0.0 **** 0.06
1758 H 16.156058266687552 16.91267250809929 102.96069485506612 H 0.0 **** 0.06
1759 H 15.088529193386663 16.34691536604447 104.26885487469694 H 0.0 **** 0.06
1760 H 15.836159776986818 17.959938287201396 104.36448236917585 H 0.0 **** 0.06
1761 C 51.52145413655829 45.27919854839729 62.47730465718399 C 0.0 **** -0.24
1762 H 52.53685754263176 45.090685445512236 62.82369536183592 H 0.0 **** 0.06
1763 H 51.14395502213992 46.19308103211881 62.93574666624323 H 0.0 **** 0.06
1764 H 50.881743193075735 44.4419699267747 62.755142687792215 H 0.0 **** 0.06
1765 H 51.52275419528433 45.390647817675045 61.39249486295307 H 0.0 **** 0.06
1766 C 45.064678223193916 20.856698376047916 83.12778173607043 C 0.0 **** -0.24
1767 H 45.84526393036491 20.487174247004475 82.46271877774768 H 0.0 **** 0.06
1768 H 44.16244291747678 21.061669494373746 82.55115345123755 H 0.0 **** 0.06
1769 H 45.40420167412618 21.773281323171716 83.61066413799949 H 0.0 **** 0.06
1770 H 44.848165290508554 20.104991528566245 83.88679940786898 H 0.0 **** 0.06
1771 C 84.80557035315586 95.41427090053276 13.203749362384201 C 0.0 **** -0.24
1772 H 85.51246938718349 95.48597945969777 12.37622559962331 H 0.0 **** 0.06
1773 H 83.91414100988949 94.88032753619018 12.873502321868571 H 0.0 **** 0.06
1774 H 84.52915181454752 96.41573367303965 13.53342339234976 H 0.0 **** 0.06
1775 H 85.26791745908298 94.87471081339743 14.029862485510336 H 0.0 **** 0.06
1776 C 54.751094507346494 18.057425875286583 13.73716351792035 C 0.0 **** -0.24
1777 H 53.954221708316396 18.106420980558312 14.478976880505456 H 0.0 **** 0.06
1778 H 54.660762910187344 18.899683773200934 13.050494931690537 H 0.0 **** 0.06
1779 H 54.671971677257716 17.12422143041141 13.18020942032868 H 0.0 **** 0.06
1780 H 55.71803644499789 18.10060867301837 14.239298402231071 H 0.0 **** 0.06
1781 C 7.864299996574687 89.71992737379378 45.726400138400805 C 0.0 **** -0.24
1782 H 6.792707617643657 89.8011125632593 45.908640645073405 H 0.0 **** 0.06
1783 H 8.310376423675507 89.0574654903941 46.470134687935 H 0.0 **** 0.06
1784 H 8.320797857614423 90.70678771562115 45.799339889011094 H 0.0 **** 0.06
1785 H 8.033242059807321 89.31341198448666 44.729516667469625 H 0.0 **** 0.06
1786 C 70.83360091810862 26.526706188992137 82.92032805117651 C 0.0 **** -0.24
1787 H 71.48832451398701 26.27575888078971 82.08464245285535 H 0.0 **** 0.06
1788 H 71.13406370532172 27.485756754512295 83.34133749297928 H 0.0 **** 0.06
1789 H 70.91012216819469 25.753659053487382 83.68498515775929 H 0.0 **** 0.06
1790 H 69.80391978032196 26.58974410890906 82.56828282543745 H 0.0 **** 0.06
1791 C 71.83920405828279 42.85334776654511 95.11539033410833 C 0.0 **** -0.24
1792 H 72.25540700342377 41.85224101031553 94.9966961681119 H 0.0 **** 0.06
1793 H 70.75884162075118 42.78370872894312 95.24444187535524 H 0.0 **** 0.06
1794 H 72.06308056255496 43.44571402902597 94.22859647332743 H 0.0 **** 0.06
1795 H 72.28076893341643 43.32824078290541 95.99137773996657 H 0.0 **** 0.06
1796 C 72.70280363086204 54.22645021391568 21.25303903399717 C 0.0 **** -0.24
1797 H 72.45382899758617 55.27444274412176 21.418169662043596 H 0.0 **** 0.06
1798 H 73.69803075373383 54.154146323612 20.814099404807536 H 0.0 **** 0.06
1799 H 71.97281828435865 53.78295515420049 20.5747039629442 H 0.0 **** 0.06
1800 H 72.68560091211565 53.69433932028875 22.203417303453875 H 0.0 **** 0.06
1801 C 30.88465216692697 83.0366611283456 64.2404693104458 C 0.0 **** -0.24
1802 H 30.341215404834912 83.53233702568502 63.43642346332501 H 0.0 **** 0.06
1803 H 30.183362967590682 82.73342352467182 65.01891414398926 H 0.0 **** 0.06
1804 H 31.617811599251638 83.72457254339963 64.66080841383223 H 0.0 **** 0.06
1805 H 31.394715009694266 82.15727235297561 63.84707873027651 H 0.0 **** 0.06
1806 C 49.53389754924667 97.85379165321083 66.3861054797369 C 0.0 **** -0.24
1807 H 49.41549902115392 98.56098763285792 67.20667812587931 H 0.0 **** 0.06
1808 H 50.40105173821559 98.13545510625423 65.78709690369953 H 0.0 **** 0.06
1809 H 48.64084508585953 97.86818230376564 65.76119582383245 H 0.0 **** 0.06
1810 H 49.679853309465074 96.8522624021005 66.78891544125938 H 0.0 **** 0.06
1811 C 42.93784371162719 77.39623453932667 107.2724206056119 C 0.0 **** -0.24
1812 H 42.75910004361569 76.47968282555303 107.8359741479577 H 0.0 **** 0.06
1813 H 42.64536031148234 78.25564425788792 107.87670805268556 H 0.0 **** 0.06
1814 H 42.349382212132745 77.37910039263146 106.35485787328895 H 0.0 **** 0.06
1815 H 43.99652042824914 77.46895865962549 107.02450197398116 H 0.0 **** 0.06
1816 C 87.19257834280256 13.137490778710912 30.57013162673327 C 0.0 **** -0.24
1817 H 86.65176917175279 14.036701423785924 30.86303000034041 H 0.0 **** 0.06
1818 H 87.66644069059288 12.697000289414259 31.447785034801512 H 0.0 **** 0.06
1819 H 87.95533170824609 13.394673004954985 29.835345632974693 H 0.0 **** 0.06
1820 H 86.49606321880907 12.420557153852421 30.13502504221774 H 0.0 **** 0.06
1821 C 82.49651275204151 66.77700915600073 6.166632738031867 C 0.0 **** -0.24
1822 H 82.61439051106616 67.70254466142411 5.602321859313298 H 0.0 **** 0.06
1823 H 82.84238358778491 66.92847544953827 7.189305807202215 H 0.0 **** 0.06
1824 H 83.08508705830958 65.98879206468831 5.696149992620095 H 0.0 **** 0.06
1825 H 81.4459146870158 66.48950178605595 6.176430827794681 H 0.0 **** 0.06
1826 C 2.934078033486756 80.97870624562424 28.67658523517332 C 0.0 **** -0.24
1827 H 3.9989120531368627 80.90637591331148 28.451341405211053 H 0.0 **** 0.06
1828 H 2.5506709863603305 79.99276544050642 28.937578690125008 H 0.0 **** 0.06
1829 H 2.403880922838681 81.35623540498688 27.802158778133844 H 0.0 **** 0.06
1830 H 2.7858796027770296 81.66118481911496 29.513922158616822 H 0.0 **** 0.06
1831 C 101.36293386974178 69.72469680316684 44.83542351205918 C 0.0 **** -0.24
1832 H 102.39505604418478 69.68879775029183 45.180840402402 H 0.0 **** 0.06
1833 H 101.27821287541808 69.18924539946954 43.888589776091976 H 0.0 **** 0.06
1834 H 101.06301044903176 70.76250400859618 44.69330045084695 H 0.0 **** 0.06
1835 H 100.71465842959937 69.25773800695296 45.57611524407375 H 0.0 **** 0.06
1836 C 46.27382332221824 91.18182373733804 85.19166483679771 C 0.0 **** -0.24
1837 H 45.400853751025444 91.62737651242001 84.71568619392554 H 0.0 **** 0.06
1838 H 46.45467000793649 91.67044689208359 86.14953632896919 H 0.0 **** 0.06
1839 H 47.14430904286114 91.31069302180094 84.54730216483495 H 0.0 **** 0.06
1840 H 46.09593171314278 90.11839376873944 85.35334095949418 H 0.0 **** 0.06
1841 C 16.400817778234455 13.078871663235674 73.62202244598254 C 0.0 **** -0.24
1842 H 15.99878516365095 12.238617478313685 73.0557517018748 H 0.0 **** 0.06
1843 H 17.411627649597108 12.84353176267335 73.95408172221704 H 0.0 **** 0.06
1844 H 15.767647218025843 13.269253837665545 74.48937335497692 H 0.0 **** 0.06
1845 H 16.422927789500875 13.966199062481408 72.98773765267815 H 0.0 **** 0.06
1846 C 9.873304357906832 8.166613422795535 16.427586146916994 C 0.0 **** -0.24
1847 H 9.14139034053818 8.62931711621468 17.090341058555936 H 0.0 **** 0.06
1848 H 10.628682009770444 7.655211666405933 17.024047126002074 H 0.0 **** 0.06
1849 H 10.349254492928367 8.935869473453081 15.819147588328207 H 0.0 **** 0.06
1850 H 9.372479752498677 7.448304000392042 15.779034593479281 H 0.0 **** 0.06
1851 C 50.9218643622786 26.4493425061533 38.4424790593811 C 0.0 **** -0.24
1852 H 50.42416976358845 26.163738932684566 37.51515894067263 H 0.0 **** 0.06
1853 H 50.24310048055298 26.294977939022743 39.28024451119355 H 0.0 **** 0.06
1854 H 51.2067179255605 27.500084226617446 38.39258790587621 H 0.0 **** 0.06
1855 H 51.81390204862703 25.837222255034703 38.578924924390265 H 0.0 **** 0.06
1856 C 38.17195496742889 50.85996485827198 60.752124131776725 C 0.0 **** -0.24
1857 H 38.68884079861553 50.37978461092297 59.92141009108829 H 0.0 **** 0.06
1858 H 37.10380978473515 50.90308989850729 60.53932854534733 H 0.0 **** 0.06
1859 H 38.557496072370526 51.87144118734048 60.884644372480125 H 0.0 **** 0.06
1860 H 38.33877060355587 50.28608336813318 61.66382389326628 H 0.0 **** 0.06
1861 C 55.05581074922006 17.821969266933024 6.964445079435592 C 0.0 **** -0.24
1862 H 55.1004358660939 17.582836358989937 8.027260184139607 H 0.0 **** 0.06
1863 H 55.00432161070634 16.89941905639651 6.386877072226895 H 0.0 **** 0.06
1864 H 55.947423796857095 18.38002315078566 6.680413658169186 H 0.0 **** 0.06
1865 H 54.169661189159996 18.425653692657818 6.766064178990803 H 0.0 **** 0.06
1866 C 45.11397494670952 71.11377505380054 105.12724688911376 C 0.0 **** -0.24
1867 H 45.49358735998898 70.23269230206166 104.60920297469679 H 0.0 **** 0.06
1868 H 45.68886523522473 71.27530346761375 106.03855229333962 H 0.0 **** 0.06
1869 H 44.0651192695378 70.9615965212685 105.37964789855693 H 0.0 **** 0.06
1870 H 45.208616594124976 71.98414163559124 104.47770485818603 H 0.0 **** 0.06
1871 C 97.41512105409281 105.89583583675474 76.24964598536098 C 0.0 **** -0.24
1872 H 98.11969647886444 106.71481057645026 76.10611308910114 H 0.0 **** 0.06
1873 H 97.02430779350367 105.57906538205901 75.28270527608703 H 0.0 **** 0.06
1874 H 96.59388824871995 106.23052268654965 76.88331407585565 H 0.0 **** 0.06
1875 H 97.92450069624695 105.0586986312073 76.72796657854451 H 0.0 **** 0.06
1876 C 23.94655858512931 43.84749688567538 18.86064769147916 C 0.0 **** -0.24
1877 H 23.513192431836046 43.99902030781672 19.849053617048167 H 0.0 **** 0.06
1878 H 24.756198074938254 43.11956026876382 18.926413354345325 H 0.0 **** 0.06
1879 H 24.337187391422674 44.79311853076018 18.486340807174095 H 0.0 **** 0.06
1880 H 23.178996088945212 43.47669709794539 18.18060486579284 H 0.0 **** 0.06
1881 C 97.63739091579515 84.48169958987089 20.11380813099234 C 0.0 **** -0.24
1882 H 97.79451948339822 85.54909135474179 19.95929830533356 H 0.0 **** 0.06
1883 H 96.62899920877794 84.31487329289904 20.49233687305457 H 0.0 **** 0.06
1884 H 98.36371805448174 84.10815012901146 20.83492566759955 H 0.0 **** 0.06
1885 H 97.7634045752193 83.95534279993991 19.166826594712802 H 0.0 **** 0.06
1886 C 37.10247023630535 17.863627400113344 93.90960190766589 C 0.0 **** -0.24
1887 H 37.736877600057674 18.75047282653971 93.90897528957231 H 0.0 **** 0.06
1888 H 37.53861410597962 17.104781811316517 93.25969439289804 H 0.0 **** 0.06
1889 H 36.10939548738339 18.128088021994703 93.5462893874261 H 0.0 **** 0.06
1890 H 37.025966102172625 17.47300802385312 94.92426415561215 H 0.0 **** 0.06
1891 C 31.63572294085148 84.91349623157879 22.325150734870306 C 0.0 **** -0.24
1892 H 30.626523895229354 85.26611004628387 22.11386747598604 H 0.0 **** 0.06
1893 H 31.907831692290188 85.18389680764432 23.34630905238356 H 0.0 **** 0.06
1894 H 32.33513052578495 85.37422086748211 21.628313845993915 H 0.0 **** 0.06
1895 H 31.67204053121489 83.82947018878284 22.21412611160372 H 0.0 **** 0.06
1896 C 47.961724472321066 77.16007687050897 62.973097587363554 C 0.0 **** -0.24
1897 H 47.908336120149556 78.11363138298609 62.44882734874892 H 0.0 **** 0.06
1898 H 48.989119390263966 76.79562629046215 62.96125104545598 H 0.0 **** 0.06
1899 H 47.31500797437462 76.43670027812287 62.476694594072455 H 0.0 **** 0.06
1900 H 47.63501563199384 77.29262221227448 64.00398064380849 H 0.0 **** 0.06
1901 C 86.91467595640592 83.92883394497288 71.9672364784668 C 0.0 **** -0.24
1902 H 87.54164232480713 83.28851883208192 71.34702072942976 H 0.0 **** 0.06
1903 H 85.87179429415701 83.81236082992386 71.67109334868354 H 0.0 **** 0.06
1904 H 87.21600318480779 84.96822253646569 71.83759037430505 H 0.0 **** 0.06
1905 H 87.02925673688651 83.64499000346343 73.01391492999825 H 0.0 **** 0.06
1906 C 40.706864531643845 21.300576378909852 49.39216677462218 C 0.0 **** -0.24
1907 H 40.157864890066946 21.959067156078675 48.718689843307686 H 0.0 **** 0.06
1908 H 41.57613693889215 21.827695227011702 49.78593712288449 H 0.0 **** 0.06
1909 H 41.03547280309425 20.415044332475816 48.846223951500804 H 0.0 **** 0.06
1910 H 40.059234506516276 21.000139310854195 50.2159979442265 H 0.0 **** 0.06
1911 C 3.162782014056157 44.52265613179253 82.19791695822812 C 0.0 **** -0.24
1912 H 3.8176670669582204 45.0610424669122 81.5117583347408 H 0.0 **** 0.06
1913 H 2.401199255290207 43.98960506148916 81.62871038449752 H 0.0 **** 0.06
1914 H 2.683316175679918 45.2309616091874 82.87315965224926 H 0.0 **** 0.06
1915 H 3.7502181896584688 43.809839021475796 82.77611531558941 H 0.0 **** 0.06
1916 C 62.55020507872176 36.07073221501447 58.63308492995549 C 0.0 **** -0.24
1917 H 61.6459577542269 35.98686751251273 58.030516813132635 H 0.0 **** 0.06
1918 H 63.333872307136716 36.552292282109136 58.04630596708233 H 0.0 **** 0.06
1919 H 62.88060199437251 35.07595919221828 58.93414877304747 H 0.0 **** 0.06
1920 H 62.34128804078841 36.66771444283006 59.52094233138979 H 0.0 **** 0.06
1921 C 70.9989397453683 13.937092877387023 73.07399202856593 C 0.0 **** -0.24
1922 H 70.62906549190897 13.111874410802873 73.68260552442314 H 0.0 **** 0.06
1923 H 71.32781321653039 14.74888817057057 73.72338062065008 H 0.0 **** 0.06
1924 H 70.201754890057 14.292639458099128 72.42075943226837 H 0.0 **** 0.06
1925 H 71.83830597327083 13.593100652273385 72.46888493610184 H 0.0 **** 0.06
1926 C 56.92309964624155 6.16707851678035 84.38134958245584 C 0.0 **** -0.24
1927 H 55.98779452021609 5.605982128732535 84.39772384848344 H 0.0 **** 0.06
1928 H 57.72307964843653 5.5486938134294235 84.78756157400586 H 0.0 **** 0.06
1929 H 56.8155912141835 7.067888260097078 84.98603845665203 H 0.0 **** 0.06
1930 H 57.162339598238574 6.444021219923002 83.35512261099174 H 0.0 **** 0.06
1931 C 0.6825122189655417 46.88833873713901 100.92571251526655 C 0.0 **** -0.24
1932 H 1.211573223270193 47.69622081656195 100.42074337109983 H 0.0 **** 0.06
1933 H 1.3108600145613138 46.48324908368369 101.71949417833378 H 0.0 **** 0.06
1934 H 0.450633680907913 46.10124460307253 100.20836669942108 H 0.0 **** 0.06
1935 H -0.2430180428771962 47.2726404452377 101.35424581221173 H 0.0 **** 0.06
1936 C 8.69551149922495 18.466166793222385 79.75015397774597 C 0.0 **** -0.24
1937 H 8.811658459965031 19.35895601128749 79.13612781087716 H 0.0 **** 0.06
1938 H 7.94635598941602 17.812405148147718 79.30192895803118 H 0.0 **** 0.06
1939 H 8.37535152349119 18.752630848976935 80.75169118382371 H 0.0 **** 0.06
1940 H 9.648308365375328 17.93983028143333 79.80909363002016 H 0.0 **** 0.06
1941 C 49.12037212347522 47.80189451578829 6.0140846066217275 C 0.0 **** -0.24
1942 H 50.044475851959476 48.076757038275616 6.522012482015326 H 0.0 **** 0.06
1943 H 49.34741734645797 47.46507740982602 5.0023689400230005 H 0.0 **** 0.06
1944 H 48.45928549833829 48.667936042718196 5.969841454265314 H 0.0 **** 0.06
1945 H 48.62860232021663 46.99848390461338 6.563391224483203 H 0.0 **** 0.06
1946 C 14.510719719954778 9.220535268168888 54.366462879513286 C 0.0 **** -0.24
1947 H 15.212765212815157 8.491713676215312 53.96039008053032 H 0.0 **** 0.06
1948 H 14.9689469369454 9.733230980920695 55.21294964834638 H 0.0 **** 0.06
1949 H 13.607596051198499 8.707700731566774 54.697587099211674 H 0.0 **** 0.06
1950 H 14.254727646111661 9.94649711980297 53.5957435823305 H 0.0 **** 0.06
1951 C 31.523561673754216 57.63678462007823 58.47354013676818 C 0.0 **** -0.24
1952 H 32.180644201040366 58.41881642293089 58.8540144124637 H 0.0 **** 0.06
1953 H 31.42359648429465 56.850376261217434 59.222282257983125 H 0.0 **** 0.06
1954 H 31.945614314885177 57.21866601909562 57.56065833834572 H 0.0 **** 0.06
1955 H 30.54220176327209 58.06012854715351 58.259072148892585 H 0.0 **** 0.06
1956 C 99.91944413748482 20.313040327574413 12.672801951227555 C 0.0 **** -0.24
1957 H 100.87113576614733 20.666915713470303 12.275667029334056 H 0.0 **** 0.06
1958 H 99.9256230598283 20.39592977973996 13.759217607707122 H 0.0 **** 0.06
1959 H 99.77333258280372 19.270350088809437 12.388132991734203 H 0.0 **** 0.06
1960 H 99.10850838555105 20.91721306944396 12.266128416678573 H 0.0 **** 0.06
1961 C 83.8882748829576 101.05124309943837 67.03896923088155 C 0.0 **** -0.24
1962 H 84.09516590234347 101.44426127692512 66.04332837964556 H 0.0 **** 0.06
1963 H 82.8604795202098 101.28851152300594 67.31688349765666 H 0.0 **** 0.06
1964 H 84.57251370762509 101.50360442401437 67.75674379283271 H 0.0 **** 0.06
1965 H 84.02486720791877 99.96948382629047 67.03782351091874 H 0.0 **** 0.06
1966 C 3.710962094188858 18.44304115401593 58.04748853600312 C 0.0 **** -0.24
1967 H 2.629414340483436 18.38197698061674 58.170368598939305 H 0.0 **** 0.06
1968 H 4.043193186027224 17.667315619127066 57.35795519107216 H 0.0 **** 0.06
1969 H 4.194669937478125 18.302321228956032 59.01450121809372 H 0.0 **** 0.06
1970 H 3.976478379938527 19.422306586268633 57.6480824491124 H 0.0 **** 0.06
1971 C 5.8106683690953105 0.43334485596590966 65.80986022765128 C 0.0 **** -0.24
1972 H 6.505796745029315 0.4154939430652025 66.64921816459298 H 0.0 **** 0.06
1973 H 5.99039917886968 1.3244893877625872 65.20909647545356 H 0.0 **** 0.06
1974 H 4.7876717724711 0.4473080456585379 66.18632254014216 H 0.0 **** 0.06
1975 H 5.960067234906802 -0.4558626683210525 65.19670212071519 H 0.0 **** 0.06
1976 C 53.8815162194461 39.796287687368135 76.35241337303184 C 0.0 **** -0.24
1977 H 53.255931309719045 38.94124257859144 76.0975777177594 H 0.0 **** 0.06
1978 H 53.27796726174833 40.70405195045626 76.34407219516083 H 0.0 **** 0.06
1979 H 54.68576019007813 39.88833614043887 75.62101697823029 H 0.0 **** 0.06
1980 H 54.30809969387417 39.65113833325293 77.3447535625542 H 0.0 **** 0.06
1981 C 22.934541150102888 58.614740221795415 24.803271491717254 C 0.0 **** -0.24
1982 H 23.00707830265489 57.769513665643274 24.119363413980523 H 0.0 **** 0.06
1983 H 22.011658480436296 59.16252091447237 24.60663764430359 H 0.0 **** 0.06
1984 H 23.78778642305889 59.27563602096217 24.65588752927914 H 0.0 **** 0.06
1985 H 22.929490381941662 58.250685535556244 25.831109797875 H 0.0 **** 0.06
1986 C 42.33533751294784 1.1573161330612827 11.81169976884231 C 0.0 **** -0.24
1987 H 43.41745774566128 1.0803554820451158 11.914969789605962 H 0.0 **** 0.06
1988 H 41.87515300375488 1.1590371418428198 12.799971055645152 H 0.0 **** 0.06
1989 H 41.96445139724656 0.3057064923866797 11.240017647900675 H 0.0 **** 0.06
1990 H 42.08434644531772 2.081502474106867 11.290888894216849 H 0.0 **** 0.06
1991 C 72.42868261504857 77.39530636524154 21.980367367754425 C 0.0 **** -0.24
1992 H 71.4829566292702 76.91585535112375 22.231247626220963 H 0.0 **** 0.06
1993 H 72.71092221652108 78.08240293841459 22.779333618095336 H 0.0 **** 0.06
1994 H 72.31930331508559 77.94801288764756 21.047273839417613 H 0.0 **** 0.06
1995 H 73.20175150395707 76.63538928605635 21.864944642893505 H 0.0 **** 0.06
1996 C 77.3448709054915 0.22583843001292792 52.782508700596075 C 0.0 **** -0.24
1997 H 77.50690737986449 -0.11438466669339675 51.75992898845429 H 0.0 **** 0.06
1998 H 76.31314094119874 0.560316621948985 52.89383935523602 H 0.0 **** 0.06
1999 H 78.02086516112263 1.0525408539876366 53.00200757480671 H 0.0 **** 0.06
2000 H 77.5375830998783 -0.5945120998198092 53.47297145824894 H 0.0 **** 0.06
2001 C 18.201957306297345 0.25040606460459003 95.41137622149469 C 0.0 **** -0.24
2002 H 17.465471315846287 0.8714138759338539 94.9022892894967 H 0.0 **** 0.06
2003 H 18.39434309720818 -0.6445248400314085 94.81896480660944 H 0.0 **** 0.06
2004 H 17.820069497607477 -0.037351756361545085 96.3913813482492 H 0.0 **** 0.06
2005 H 19.128494387632486 0.8113153013293299 95.53319050553259 H 0.0 **** 0.06
2006 C 27.329620389649506 34.262999748098075 83.57256643819028 C 0.0 **** -0.24
2007 H 27.689981200291697 34.44534791355112 82.5594775164792 H 0.0 **** 0.06
2008 H 26.437965403305157 33.636227209329924 83.53373993197226 H 0.0 **** 0.06
2009 H 27.0852666791223 35.213129469159895 84.0469487844918 H 0.0 **** 0.06
2010 H 28.10471539940636 33.75745529521711 84.14793880507935 H 0.0 **** 0.06
2011 C 43.783173456878956 28.284087070016113 95.88811006704907 C 0.0 **** -0.24
2012 H 44.19888569045088 27.564802150019062 95.183058745837 H 0.0 **** 0.06
2013 H 44.18862401672885 29.27406942755141 95.67807992236942 H 0.0 **** 0.06
2014 H 44.047062922138934 27.98988663441841 96.90429083465119 H 0.0 **** 0.06
2015 H 42.69809170929892 28.305879270882883 95.78674159623097 H 0.0 **** 0.06
2016 C 31.340071691640148 73.41009972836093 45.07170796456427 C 0.0 **** -0.24
2017 H 31.537209814123344 74.21843174676366 45.775028455964446 H 0.0 **** 0.06
2018 H 32.12780102862594 73.38273092128549 44.31846807591086 H 0.0 **** 0.06
2019 H 30.378880199861825 73.57782185541197 44.58632147562088 H 0.0 **** 0.06
2020 H 31.31588486909729 72.46061827715562 45.60733832145678 H 0.0 **** 0.06
2021 C 99.59480612962629 65.21479469671249 50.89765094570993 C 0.0 **** -0.24
2022 H 99.832725822497 65.66881391331309 49.93491593122127 H 0.0 **** 0.06
2023 H 98.77371192472988 65.75920769189516 51.36249026102931 H 0.0 **** 0.06
2024 H 100.47126960479174 65.2557166206318 51.544450792372686 H 0.0 **** 0.06
2025 H 99.30327722271238 64.17510935641452 50.745617397363105 H 0.0 **** 0.06
2026 C 60.40498423952613 21.236838682825976 0.649814369135246 C 0.0 **** -0.24
2027 H 59.39063698911335 21.285597144710493 0.2535882471470332 H 0.0 **** 0.06
2028 H 60.37261386855431 20.923105833334603 1.6935675779550303 H 0.0 **** 0.06
2029 H 60.86977380776722 22.220514180951227 0.5793724777549878 H 0.0 **** 0.06
2030 H 60.98582301180841 20.51824708097047 0.071386927917648 H 0.0 **** 0.06
2031 C 70.64716819745472 56.67359094374093 74.3231615054359 C 0.0 **** -0.24
2032 H 71.42589585501952 56.566964784005734 73.56761932470518 H 0.0 **** 0.06
2033 H 69.94411609481135 57.44786002455328 74.0122127768735 H 0.0 **** 0.06
2034 H 71.09990675394735 56.95399779529267 75.2743737190767 H 0.0 **** 0.06
2035 H 70.11891124400276 55.727784956932695 74.43645496244156 H 0.0 **** 0.06
2036 C 107.54427505149249 22.60039805292518 52.58289476577764 C 0.0 **** -0.24
2037 H 108.57732585033153 22.478889004513626 52.91024704056713 H 0.0 **** 0.06
2038 H 106.97927631526585 21.699104694294157 52.82349950293019 H 0.0 **** 0.06
2039 H 107.52224036170207 22.76619894261928 51.5055803156269 H 0.0 **** 0.06
2040 H 107.09943642607834 23.45548764264212 53.09127476623473 H 0.0 **** 0.06
2041 C 67.01477068424566 73.37973284591664 91.16647023779217 C 0.0 **** -0.24
2042 H 67.19657174079894 73.93948640627315 92.0838350411727 H 0.0 **** 0.06
2043 H 66.00473891436737 73.58446139522707 90.80998466914389 H 0.0 **** 0.06
2044 H 67.12155227444327 72.31315059481977 91.36418937317087 H 0.0 **** 0.06
2045 H 67.73639793044266 73.68280487730209 90.407717752032 H 0.0 **** 0.06
2046 C 43.39952781474054 16.96118275745357 100.99244163435185 C 0.0 **** -0.24
2047 H 43.57811783420024 16.727591265626472 99.94304873246358 H 0.0 **** 0.06
2048 H 43.04512521333703 17.989148356180124 101.08144440388247 H 0.0 **** 0.06
2049 H 44.32717139713108 16.846614942784527 101.5532940821887 H 0.0 **** 0.06
2050 H 42.64653314418058 16.281149779762927 101.39275041203345 H 0.0 **** 0.06
2051 C 11.948204181472448 35.07636721385303 97.31771066920203 C 0.0 **** -0.24
2052 H 10.988506616558311 34.80861219951221 96.8763676399527 H 0.0 **** 0.06
2053 H 12.334702374250469 34.23236807846911 97.88915574777505 H 0.0 **** 0.06
2054 H 11.817804569995275 35.933654058045164 97.97786145020825 H 0.0 **** 0.06
2055 H 12.652954163074753 35.33253088104365 96.52611699658709 H 0.0 **** 0.06
2056 C 24.04496411939413 98.76651529299981 11.260380870883878 C 0.0 **** -0.24
2057 H 24.005973678890875 98.03177145777809 10.456490902681011 H 0.0 **** 0.06
2058 H 23.058539844062523 99.20855178441589 11.396379746897765 H 0.0 **** 0.06
2059 H 24.762204310227364 99.547215461169 11.00470592386651 H 0.0 **** 0.06
2060 H 24.354941740819573 98.27748591829781 12.184768283583082 H 0.0 **** 0.06
2061 C 91.75536440308207 1.485018286257116 75.01834032444262 C 0.0 **** -0.24
2062 H 92.2012175358415 1.4898830327860253 76.01283575835504 H 0.0 **** 0.06
2063 H 90.94822939616984 2.2173923542216585 74.97847512422716 H 0.0 **** 0.06
2064 H 91.35640419347277 0.4927198277671039 74.80363477258038 H 0.0 **** 0.06
2065 H 92.51406851349248 1.7384547632947829 74.27843029615973 H 0.0 **** 0.06
2066 C 4.25434416249891 26.31226450326346 90.11854093516291 C 0.0 **** -0.24
2067 H 4.388802075223339 27.300921235403642 90.55791756441926 H 0.0 **** 0.06
2068 H 3.317185076400648 25.88301119983539 90.47045317738616 H 0.0 **** 0.06
2069 H 5.083143225593943 25.668661937718905 90.41232262475222 H 0.0 **** 0.06
2070 H 4.229024485298339 26.399074339504736 89.03186440730286 H 0.0 **** 0.06
2071 C 57.81644847525799 45.7123073871212 77.41157038227021 C 0.0 **** -0.24
2072 H 57.049803724319816 45.29828575462176 78.06658624622696 H 0.0 **** 0.06
2073 H 57.743654048035815 45.24720067503813 76.428222729852 H 0.0 **** 0.06
2074 H 58.80152575999727 45.51551390690173 77.83588981920127 H 0.0 **** 0.06
2075 H 57.67130119315397 46.788576984144186 77.31638160510693 H 0.0 **** 0.06
2076 C 31.797667895433328 88.26765049974414 48.28127656141544 C 0.0 **** -0.24
2077 H 32.8335132090578 87.92803728627237 48.2733249356161 H 0.0 **** 0.06
2078 H 31.137869336297328 87.42567003958608 48.0713893534307 H 0.0 **** 0.06
2079 H 31.661565286374163 89.0351328640525 47.519318711453394 H 0.0 **** 0.06
2080 H 31.55901103610148 88.68118171974567 49.260992684769775 H 0.0 **** 0.06
2081 C 106.22968633831346 0.9947902820546011 46.2558223688289 C 0.0 **** -0.24
2082 H 106.83398532899788 1.7419369105206073 45.74052289260247 H 0.0 **** 0.06
2083 H 105.72331473403582 1.4571896622231968 47.10267739749293 H 0.0 **** 0.06
2084 H 106.87369937809568 0.1904859916380479 46.61181491162635 H 0.0 **** 0.06
2085 H 105.48974348316601 0.5891987180532547 45.565847791917484 H 0.0 **** 0.06
2086 C 65.59520550059563 31.073904278940972 63.30921935618562 C 0.0 **** -0.24
2087 H 66.41074839368795 31.796217187564864 63.33352330468148 H 0.0 **** 0.06
2088 H 64.64399311450902 31.60073728700749 63.23579712538293 H 0.0 **** 0.06
2089 H 65.61058605593729 30.477633355443146 64.22232469441707 H 0.0 **** 0.06
2090 H 65.71616630440076 30.418828826695375 62.44607305772223 H 0.0 **** 0.06
2091 C 11.106452815230485 85.33481032111358 40.52071472094963 C 0.0 **** -0.24
2092 H 11.316940752370176 85.1627125646133 41.576297999350885 H 0.0 **** 0.06
2093 H 11.40414703722298 84.45858127542888 39.94420912211112 H 0.0 **** 0.06
2094 H 11.66687642687727 86.20466405234343 40.176552291434334 H 0.0 **** 0.06
2095 H 10.039330293553713 85.51386114853655 40.38766131591308 H 0.0 **** 0.06
2096 C 19.89365288184007 50.267070733821924 90.99528968512743 C 0.0 **** -0.24
2097 H 20.657820722533813 51.03294413529227 91.12732490708993 H 0.0 **** 0.06
2098 H 20.354817145264803 49.355856880598736 90.61388344950257 H 0.0 **** 0.06
2099 H 19.14455710974306 50.619730782384806 90.28718572428733 H 0.0 **** 0.06
2100 H 19.418364281754876 50.06022898652691 91.95473283435501 H 0.0 **** 0.06
2101 C 66.87094722987027 30.90934310778198 84.17360926796448 C 0.0 **** -0.24
2102 H 66.80452388694096 30.678931009677342 83.1105970206761 H 0.0 **** 0.06
2103 H 67.91730304888316 31.03130785497143 84.45396257230546 H 0.0 **** 0.06
2104 H 66.43235993201529 30.09377842579073 84.75002784612182 H 0.0 **** 0.06
2105 H 66.32878343941513 31.83232617206528 84.37932886727101 H 0.0 **** 0.06
2106 C 54.233400711613854 93.34962273817257 78.19985324603483 C 0.0 **** -0.24
2107 H 55.107336303916725 92.93422882481951 77.69952108785029 H 0.0 **** 0.06
2108 H 53.34416548535893 93.15777721571703 77.59913793399984 H 0.0 **** 0.06
2109 H 54.36240006430495 94.42530260922217 78.3230071522381 H 0.0 **** 0.06
2110 H 54.11872358339224 92.88393669566887 79.17842389000984 H 0.0 **** 0.06
2111 C 47.84258527210659 55.94188058555268 64.446292365001 C 0.0 **** -0.24
2112 H 47.7692029447752 54.93419849626674 64.85542279521164 H 0.0 **** 0.06
2113 H 48.70328613583666 56.448659888356964 64.8838865550455 H 0.0 **** 0.06
2114 H 46.934745349567834 56.49659831184014 64.68204382496616 H 0.0 **** 0.06
2115 H 47.96470391891097 55.88606731652266 63.36502286468041 H 0.0 **** 0.06
2116 C 31.03613797600581 45.956479812005576 11.065831020218099 C 0.0 **** -0.24
2117 H 31.749139469151835 45.345375701513525 11.619454096790207 H 0.0 **** 0.06
2118 H 31.574890603277503 46.604184793871774 10.373414395910345 H 0.0 **** 0.06
2119 H 30.462909749922325 46.566904477744046 11.762797974665546 H 0.0 **** 0.06
2120 H 30.360340059375986 45.31005683060679 10.507215504213008 H 0.0 **** 0.06
2121 C 52.705848022664895 26.91098860201009 45.18971856588888 C 0.0 **** -0.24
2122 H 53.652906559505396 26.370288169223212 45.17991570632603 H 0.0 **** 0.06
2123 H 52.89969193334318 27.98070307999997 45.268986084151265 H 0.0 **** 0.06
2124 H 52.110594986231405 26.584322828502046 46.04216864584322 H 0.0 **** 0.06
2125 H 52.16269183011491 26.707039989941034 44.26733136777585 H 0.0 **** 0.06
2126 C 22.22819543364838 93.53147432054533 39.71132159012663 C 0.0 **** -0.24
2127 H 23.06078553492685 93.50464097192025 40.41433407969009 H 0.0 **** 0.06
2128 H 22.551415741651567 94.00332095478501 38.78296051149931 H 0.0 **** 0.06
2129 H 21.406076901015894 94.10292899097637 40.14203673260704 H 0.0 **** 0.06
2130 H 21.894402658867023 92.51403585270077 39.50452392698179 H 0.0 **** 0.06
2131 C 79.38612995618332 50.56761847503143 90.3996253564614 C 0.0 **** -0.24
2132 H 79.34920748962679 51.39450175042377 91.109112961689 H 0.0 **** 0.06
2133 H 79.41561381861173 49.62358987294495 90.94373983383763 H 0.0 **** 0.06
2134 H 80.27885524873142 50.659388916623065 89.78100786583411 H 0.0 **** 0.06
2135 H 78.49974159697376 50.59387788836437 89.76457727925587 H 0.0 **** 0.06
2136 C 42.68750672323448 35.24194578447333 90.2586561063989 C 0.0 **** -0.24
2137 H 43.11870234723203 34.367652801075735 89.77003966788179 H 0.0 **** 0.06
2138 H 42.72120580791824 36.09277046539867 89.57749706285355 H 0.0 **** 0.06
2139 H 43.25659058902393 35.472461894963374 91.15913027438853 H 0.0 **** 0.06
2140 H 41.65153982457451 35.032911252085796 90.52764136736398 H 0.0 **** 0.06
2141 C 24.168839877859426 79.11383219788837 75.50705083194336 C 0.0 **** -0.24
2142 H 23.285235290771652 79.659653611068 75.17454543623478 H 0.0 **** 0.06
2143 H 24.86844275053238 79.80726559746239 75.97408704018511 H 0.0 **** 0.06
2144 H 24.646211190061933 78.63881128441017 74.6497220460661 H 0.0 **** 0.06
2145 H 23.87471394833807 78.35179903114289 76.22824096978263 H 0.0 **** 0.06
2146 C 65.42410807716891 53.66306672465092 56.00342772602814 C 0.0 **** -0.24
2147 H 65.31019951280359 54.17956252126568 56.95672611326198 H 0.0 **** 0.06
2148 H 65.34254318976082 52.587782497718706 56.16041446307871 H 0.0 **** 0.06
2149 H 66.40068087422446 53.89562060370324 55.57951252475531 H 0.0 **** 0.06
2150 H 64.64332576473294 53.99099636268242 55.31722003639243 H 0.0 **** 0.06
2151 C 93.59591552151915 78.23394497513775 98.54975835730619 C 0.0 **** -0.24
2152 H 93.68580763508169 77.20981503586097 98.18717436294793 H 0.0 **** 0.06
2153 H 92.74539039798572 78.71637822926294 98.06738395041228 H 0.0 **** 0.06
2154 H 94.50754068999063 78.78309335482652 98.31437894247256 H 0.0 **** 0.06
2155 H 93.44589466593635 78.22396422629453 99.62928324576293 H 0.0 **** 0.06
2156 C 91.9239282939422 49.676967453923474 16.49165694457983 C 0.0 **** -0.24
2157 H 91.95080236109558 50.61373012338037 17.047554693859297 H 0.0 **** 0.06
2158 H 92.22439750091208 48.85781199067038 17.145197655931554 H 0.0 **** 0.06
2159 H 92.6083455252248 49.73752010813367 15.646272873996566 H 0.0 **** 0.06
2160 H 90.91216778853645 49.49880759350964 16.12760255453213 H 0.0 **** 0.06
2161 C 88.13488507578887 95.60389583122338 2.5823925537469563 C 0.0 **** -0.24
2162 H 88.91992798629087 95.73381015882364 3.3272507641513016 H 0.0 **** 0.06
2163 H 87.65409463226868 96.56373427925303 2.3908994290889325 H 0.0 **** 0.06
2164 H 87.395956607769 94.89513399397666 2.9542623809327324 H 0.0 **** 0.06
2165 H 88.5701365985052 95.22517968805715 1.657860761572465 H 0.0 **** 0.06
2166 C 109.33167061664939 45.89986767187127 87.8000107354554 C 0.0 **** -0.24
2167 H 109.44711763310225 46.493283617399456 88.70647988466214 H 0.0 **** 0.06
2168 H 109.72559744123042 46.45529516678406 86.9489350552642 H 0.0 **** 0.06
2169 H 108.27450579207442 45.687169176647124 87.63708802209146 H 0.0 **** 0.06
2170 H 109.87779301139499 44.96204533329251 87.90690558227953 H 0.0 **** 0.06
2171 C 33.25122174724831 11.936864340048178 46.45043599698465 C 0.0 **** -0.24
2172 H 33.86803245970188 11.073086733253175 46.20308071210013 H 0.0 **** 0.06
2173 H 32.50148810333803 12.082572136320657 45.67171291025829 H 0.0 **** 0.06
2174 H 33.88076714813991 12.82458469983311 46.519211457971494 H 0.0 **** 0.06
2175 H 32.755003195179086 11.767649742948695 47.40645559331915 H 0.0 **** 0.06
2176 C 95.59238188595106 30.932600202885595 91.63863823088252 C 0.0 **** -0.24
2177 H 95.02183608683498 31.786970131211724 92.00342639095999 H 0.0 **** 0.06
2178 H 94.91177255458143 30.197249924746203 91.20998598200433 H 0.0 **** 0.06
2179 H 96.13990976833372 30.482698234487543 92.46670482831794 H 0.0 **** 0.06
2180 H 96.29635598721165 31.265639445243337 90.8755437242304 H 0.0 **** 0.06
2181 C 89.74428401445633 46.82395258149597 101.45834538716846 C 0.0 **** -0.24
2182 H 90.13800567302758 47.63724257176306 102.06862036600461 H 0.0 **** 0.06
2183 H 90.34279762888727 46.72681380794984 100.55237442076753 H 0.0 **** 0.06
2184 H 88.70988770655876 47.038600581706504 101.19059483240392 H 0.0 **** 0.06
2185 H 89.78745823343343 45.89240347697599 102.02297990056667 H 0.0 **** 0.06
2186 C 7.698667692903456 29.446718341465925 56.528223772769735 C 0.0 **** -0.24
2187 H 7.916627806635233 28.409424497736822 56.27205042555195 H 0.0 **** 0.06
2188 H 6.851465283350024 29.481731755276485 57.21323691665414 H 0.0 **** 0.06
2189 H 7.455958260162362 30.001105151593777 55.62056725295625 H 0.0 **** 0.06
2190 H 8.570907095781905 29.89418295234134 57.00486484829563 H 0.0 **** 0.06
2191 C 9.2704446210881 62.50038144746674 67.28866123079109 C 0.0 **** -0.24
2192 H 8.903792193473315 62.044480204719264 66.36868897925496 H 0.0 **** 0.06
2193 H 8.975151040796044 61.88656674437681 68.1405680066643 H 0.0 **** 0.06
2194 H 8.843581945640587 63.49750026008434 67.39465261166703 H 0.0 **** 0.06
2195 H 10.357240691068025 62.57209857016147 67.25115391441386 H 0.0 **** 0.06
2196 C 6.004460437124358 2.034924475062324 95.64847920187188 C 0.0 **** -0.24
2197 H 5.200093513364195 2.4708515449200394 96.24098346761731 H 0.0 **** 0.06
2198 H 5.877516707868432 0.9521573762448359 95.60548299387487 H 0.0 **** 0.06
2199 H 6.963863139597995 2.2693720754095947 96.10978240620054 H 0.0 **** 0.06
2200 H 5.975575417547461 2.4450076213208236 94.63941117222862 H 0.0 **** 0.06
2201 C 38.74227784497503 36.1399135326308 18.681067411226735 C 0.0 **** -0.24
2202 H 39.63083171227245 35.672602261311624 19.104408899331304 H 0.0 **** 0.06
2203 H 37.91874686443668 35.42531652607306 18.688120442371684 H 0.0 **** 0.06
2204 H 38.94678997645222 36.447822132094984 17.655697750327533 H 0.0 **** 0.06
2205 H 38.47120914888878 37.01238346557102 19.274898870962545 H 0.0 **** 0.06
2206 C 92.5575951391499 13.383852091467645 107.83559092412949 C 0.0 **** -0.24
2207 H 93.16627966265267 13.934495826338775 107.11858501300932 H 0.0 **** 0.06
2208 H 93.07940397378839 12.472988946134024 108.13147063479221 H 0.0 **** 0.06
2209 H 91.60342563743194 13.123454476235679 107.37735352548586 H 0.0 **** 0.06
2210 H 92.38073979909912 14.003397876278655 108.71419949527348 H 0.0 **** 0.06
2211 C 9.995211598721502 80.69309261175937 46.46673254491981 C 0.0 **** -0.24
2212 H 10.653381561596568 80.18191124531421 45.76485383345357 H 0.0 **** 0.06
2213 H 9.164192131708878 81.14393211808061 45.92207543521906 H 0.0 **** 0.06
2214 H 10.5536626389181 81.47225013650433 46.987256261642614 H 0.0 **** 0.06
2215 H 9.609311711463826 79.97627760384324 47.19179144054877 H 0.0 **** 0.06
2216 C 87.9608627360306 65.2313779183396 89.06890981235652 C 0.0 **** -0.24
2217 H 87.25778665613268 64.46275398751777 89.3886770791064 H 0.0 **** 0.06
2218 H 88.77479510379294 65.3014693864348 89.79145338736751 H 0.0 **** 0.06
2219 H 87.44656368953889 66.1899211211404 89.00487663262523 H 0.0 **** 0.06
2220 H 88.36468047190556 64.96976650096462 88.09117746939206 H 0.0 **** 0.06
2221 C 82.88389172632827 97.2312044520544 60.77553315493239 C 0.0 **** -0.24
2222 H 83.38820771896636 96.57737889070887 60.06461309262137 H 0.0 **** 0.06
2223 H 83.60847600642784 97.61208341626065 61.49566142642138 H 0.0 **** 0.06
2224 H 82.10995564144346 96.67091778363519 61.30002399699377 H 0.0 **** 0.06
2225 H 82.42938356857931 98.0657734572591 60.24174502375868 H 0.0 **** 0.06
2226 C 27.343501641394177 82.83049483102332 52.38535434340065 C 0.0 **** -0.24
2227 H 27.900753053210202 82.71185135972655 53.314267376723535 H 0.0 **** 0.06
2228 H 27.070961152548428 83.87849829317076 52.25685010937684 H 0.0 **** 0.06
2229 H 26.440519870382204 82.22160134037608 52.42252250431977 H 0.0 **** 0.06
2230 H 27.963050071928016 82.5106338879931 51.54781177181928 H 0.0 **** 0.06
2231 C 96.33846870387214 44.00651917441607 15.902857458814083 C 0.0 **** -0.24
2232 H 96.46698301857788 42.97095085607381 15.58683178525392 H 0.0 **** 0.06
2233 H 96.68974659003729 44.67243706469452 15.114599837279698 H 0.0 **** 0.06
2234 H 96.91415705372899 44.18284093403173 16.81142469310153 H 0.0 **** 0.06
2235 H 95.28405640049488 44.19798855205272 16.097939380039463 H 0.0 **** 0.06
2236 C 4.580796097388458 3.448717812316275 85.60779019592837 C 0.0 **** -0.24
2237 H 3.7923415350414302 2.926285942458705 85.06605206132525 H 0.0 **** 0.06
2238 H 5.537288456857368 2.9624689710173584 85.41576337938153 H 0.0 **** 0.06
2239 H 4.366749238150817 3.420511506086143 86.67645723356725 H 0.0 **** 0.06
2240 H 4.625435899985945 4.4854338851943965 85.27319795688538 H 0.0 **** 0.06
2241 C 18.48535573889625 20.322283895821347 17.684842179582695 C 0.0 **** -0.24
2242 H 18.301896170605165 21.3052163799045 17.251695381669858 H 0.0 **** 0.06
2243 H 19.18739389690462 19.773833209278198 17.05706426062105 H 0.0 **** 0.06
2244 H 17.545644374516353 19.771787050502454 17.7464273010423 H 0.0 **** 0.06
2245 H 18.9043514530399 20.437105969316587 18.684282184028095 H 0.0 **** 0.06
2246 C 104.14934679381118 46.06729935690606 77.81771842996797 C 0.0 **** -0.24
2247 H 105.17144896924995 46.1589363167584 78.18576285106478 H 0.0 **** 0.06
2248 H 103.56813166510415 46.93065698888819 78.14358726934545 H 0.0 **** 0.06
2249 H 103.70081190847183 45.156685127014384 78.21254238361716 H 0.0 **** 0.06
2250 H 104.15877204538212 46.025057324279146 76.72785480703226 H 0.0 **** 0.06
2251 C 96.85548620272368 104.05554477507849 65.08656957664272 C 0.0 **** -0.24
2252 H 97.60177472159728 103.5159018496106 64.50456978060261 H 0.0 **** 0.06
2253 H 97.35533726465837 104.74308762652294 65.76919877961942 H 0.0 **** 0.06
2254 H 96.25700179865248 103.3463259739566 65.65753798893518 H 0.0 **** 0.06
2255 H 96.20852550403475 104.61894615379691 64.41388493802235 H 0.0 **** 0.06
2256 C 7.665827168306052 85.65997476143079 26.373322440459617 C 0.0 **** -0.24
2257 H 7.530654057502943 86.24870251356487 27.28150348228138 H 0.0 **** 0.06
2258 H 6.921908385302004 85.95746757951393 25.63449653750368 H 0.0 **** 0.06
2259 H 7.5456391710498565 84.60205889296806 26.605410126142516 H 0.0 **** 0.06
2260 H 8.664829439346732 85.83351653539896 25.97422778550606 H 0.0 **** 0.06
2261 C 87.44239776054178 37.874829910441235 14.176562013120687 C 0.0 **** -0.24
2262 H 87.074107667144 37.06229037166274 14.802317344646056 H 0.0 **** 0.06
2263 H 88.02635501206657 38.5656549737883 14.784490882084668 H 0.0 **** 0.06
2264 H 86.59807025617744 38.403845931980015 13.734375416478315 H 0.0 **** 0.06
2265 H 88.07041964634413 37.46722591153815 13.384356638035797 H 0.0 **** 0.06
2266 C 7.219069238388073 84.3275403429425 33.61924192417007 C 0.0 **** -0.24
2267 H 7.572751493527164 84.53358888258961 32.609363867038155 H 0.0 **** 0.06
2268 H 6.375565898940266 83.63875510897867 33.57482491271574 H 0.0 **** 0.06
2269 H 6.903658374475043 85.25854042357528 34.089909199202395 H 0.0 **** 0.06
2270 H 8.023572677468707 83.87993646099913 34.20305513067103 H 0.0 **** 0.06
2271 C 34.7026127064085 12.499145794534385 55.85979934936488 C 0.0 **** -0.24
2272 H 35.747741202579306 12.226712731109558 56.008013837599115 H 0.0 **** 0.06
2273 H 34.46878655134947 13.378300625881224 56.4620526879059 H 0.0 **** 0.06
2274 H 34.06445696783521 11.669848334774983 56.163818765403796 H 0.0 **** 0.06
2275 H 34.53137721822611 12.723161911234854 54.807121322969074 H 0.0 **** 0.06
2276 C 34.85395965858525 106.4223990317652 52.94226909945229 C 0.0 **** -0.24
2277 H 33.883682937058296 106.90376435933254 52.819271631603044 H 0.0 **** 0.06
2278 H 35.01839831071967 105.72165106195857 52.12318600260318 H 0.0 **** 0.06
2279 H 34.875080594995865 105.88498185024997 53.890747660440695 H 0.0 **** 0.06
2280 H 35.63836477578341 107.17881484040979 52.936740141764176 H 0.0 **** 0.06
2281 C 93.82587675449966 86.43853802048872 47.20561112148825 C 0.0 **** -0.24
2282 H 94.38111815338434 86.76684815269061 48.08365397735552 H 0.0 **** 0.06
2283 H 94.33537356559225 86.78072114365716 46.30507819598448 H 0.0 **** 0.06
2284 H 92.81959557918162 86.85719277704817 47.234529704349164 H 0.0 **** 0.06
2285 H 93.7661119866618 85.35044424152741 47.19876002641289 H 0.0 **** 0.06
2286 C 91.92649919676846 67.65249115174791 86.09525318937582 C 0.0 **** -0.24
2287 H 91.77294078797905 67.73931521344588 85.01970669961692 H 0.0 **** 0.06
2288 H 92.96080271426736 67.36721441793736 86.29208400928361 H 0.0 **** 0.06
2289 H 91.25721495471555 66.89254913431483 86.4977746991268 H 0.0 **** 0.06
2290 H 91.71722293830653 68.61062465365504 86.57037051832268 H 0.0 **** 0.06
2291 C 4.00549437984597 65.02775454897204 46.13482299917291 C 0.0 **** -0.24
2292 H 4.772967948034022 65.56467580818874 45.57602802901337 H 0.0 **** 0.06
2293 H 3.48264004515579 65.72388575995474 46.79171386789869 H 0.0 **** 0.06
2294 H 4.473025255129073 64.24551126898413 46.7324091184463 H 0.0 **** 0.06
2295 H 3.295947719502408 64.5795808768381 45.439667093819935 H 0.0 **** 0.06
2296 C 33.99208458023844 33.31209098837903 1.4708389418954653 C 0.0 **** -0.24
2297 H 34.4429057804348 32.401817590389406 1.867337991812633 H 0.0 **** 0.06
2298 H 33.652640032705335 33.13520487317202 0.45080732037268945 H 0.0 **** 0.06
2299 H 34.731339444482586 34.11357191143179 1.4740758415938444 H 0.0 **** 0.06
2300 H 33.14328806288541 33.59722753550082 2.092664078832513 H 0.0 **** 0.06
2301 C 47.51847860770159 29.98480472279209 58.41590624227086 C 0.0 **** -0.24
2302 H 46.71581441051522 29.81673970915645 59.13427190402461 H 0.0 **** 0.06
2303 H 47.42761454762188 30.988644008873223 57.999312503873625 H 0.0 **** 0.06
2304 H 47.448689138036904 29.24984160555931 57.61377749520315 H 0.0 **** 0.06
2305 H 48.48174173297857 29.885802740992773 58.917576137934724 H 0.0 **** 0.06
2306 C 49.86906131764738 31.11516798313518 1.9388115508150037 C 0.0 **** -0.24
2307 H 50.63296867259555 31.042777994390235 1.164996921708081 H 0.0 **** 0.06
2308 H 49.51887849376624 32.14450279717978 2.0094135779727083 H 0.0 **** 0.06
2309 H 50.29187848510014 30.807731538499553 2.894912646398126 H 0.0 **** 0.06
2310 H 49.03283933608424 30.46256063761608 1.684785189480678 H 0.0 **** 0.06
2311 C 1.2617061161933991 6.091186002203102 84.05006924282 C 0.0 **** -0.24
2312 H 0.6222917943190511 5.716274057068773 83.25051483494167 H 0.0 **** 0.06
2313 H 0.947252234232745 7.098638126856827 84.32422956214253 H 0.0 **** 0.06
2314 H 2.2959740001900117 6.11254363304721 83.70795578979144 H 0.0 **** 0.06
2315 H 1.1786181281685248 5.435978088017833 84.91781568758012 H 0.0 **** 0.06
2316 C 27.857460418030144 84.8367212570152 65.97770793428708 C 0.0 **** -0.24
2317 H 27.521254256525808 84.02807585929128 65.3296787369062 H 0.0 **** 0.06
2318 H 28.435746925100858 84.42328386894701 66.80383328292385 H 0.0 **** 0.06
2319 H 26.992685187119122 85.37152433829755 66.37081268041175 H 0.0 **** 0.06
2320 H 28.481288386442017 85.52428690722206 65.40571050886984 H 0.0 **** 0.06
2321 C 26.34705547764935 25.019127380262347 71.77347834983168 C 0.0 **** -0.24
2322 H 25.905633525296736 24.91333541578348 70.78329124379925 H 0.0 **** 0.06
2323 H 27.4035099184359 25.271914183865874 71.67536216779968 H 0.0 **** 0.06
2324 H 26.24704372015512 24.079912025403758 72.31796072143837 H 0.0 **** 0.06
2325 H 25.83261690263822 25.811203567723226 72.31809946212213 H 0.0 **** 0.06
2326 C 57.28566798095386 57.096127210871636 35.25286687286865 C 0.0 **** -0.24
2327 H 57.44309205970018 56.29710733572548 35.977436929902524 H 0.0 **** 0.06
2328 H 56.99987960946916 56.66562408973746 34.293468675787864 H 0.0 **** 0.06
2329 H 58.20741621863357 57.66638481067842 35.13595092710466 H 0.0 **** 0.06
2330 H 56.49317141471374 57.756155249345426 35.60651652524939 H 0.0 **** 0.06
2331 C 51.66386124533912 50.430212564055296 1.982406176946868 C 0.0 **** -0.24
2332 H 52.26776503383712 49.527469665509216 2.074890453546792 H 0.0 **** 0.06
2333 H 52.248233303167865 51.29207535395017 2.3057306720592097 H 0.0 **** 0.06
2334 H 50.774627735139774 50.339188617404034 2.6054697576265227 H 0.0 **** 0.06
2335 H 51.36647622521551 50.561996343455405 0.9420374672767204 H 0.0 **** 0.06
2336 C 20.376142143185206 91.29447687385493 37.34937461161567 C 0.0 **** -0.24
2337 H 20.914010795868194 91.62097782011004 36.45941770294917 H 0.0 **** 0.06
2338 H 21.03959482678289 90.7000290073816 37.976906360549435 H 0.0 **** 0.06
2339 H 19.517216622273878 90.69055270152944 37.053661072559635 H 0.0 **** 0.06
2340 H 20.03221425485748 92.16579719370057 37.90635158751502 H 0.0 **** 0.06
2341 C 37.76846132204679 73.45016411255827 39.42797306535496 C 0.0 **** -0.24
2342 H 38.54935254965818 74.09701136094642 39.02677804592946 H 0.0 **** 0.06
2343 H 38.21616773624743 72.52514967464566 39.79346752190804 H 0.0 **** 0.06
2344 H 37.04818200061882 73.22049908831734 38.64266577091979 H 0.0 **** 0.06
2345 H 37.262340256393 73.95836978353758 40.24879967947405 H 0.0 **** 0.06
2346 C 97.99225947481106 62.81551103642954 35.76850301308886 C 0.0 **** -0.24
2347 H 98.14735070015722 62.25236443160125 36.68900857917805 H 0.0 **** 0.06
2348 H 97.81952856116956 62.12312385021471 34.94411359273221 H 0.0 **** 0.06
2349 H 98.87494469987017 63.41909456980008 35.55936542782169 H 0.0 **** 0.06
2350 H 97.1253513830141 63.4667123296401 35.88396790027949 H 0.0 **** 0.06
2351 C 54.58445623241698 76.8511488458181 34.264921966993285 C 0.0 **** -0.24
2352 H 53.96501964351765 76.18602471819077 33.6627823666296 H 0.0 **** 0.06
2353 H 55.16850459405049 76.26054781678073 34.97137709197682 H 0.0 **** 0.06
2354 H 53.94716701934266 77.54585034508591 34.810644490592495 H 0.0 **** 0.06
2355 H 55.25708675370032 77.40889629036849 33.61307700935885 H 0.0 **** 0.06
2356 C 67.09199268007458 101.10595780467797 71.29105184971672 C 0.0 **** -0.24
2357 H 66.57112051069214 102.0211404962136 71.57398775783918 H 0.0 **** 0.06
2358 H 68.01093147405331 101.3613081183512 70.76258556460272 H 0.0 **** 0.06
2359 H 66.45220429172349 100.51000804879642 70.64059466893355 H 0.0 **** 0.06
2360 H 67.33369198927036 100.53420044352539 72.18692004171879 H 0.0 **** 0.06
2361 C 75.90351925047243 45.69117155188397 44.4606220913559 C 0.0 **** -0.24
2362 H 74.84003002026064 45.47146467275047 44.364661542389 H 0.0 **** 0.06
2363 H 76.05898824346235 46.7683231540058 44.39620388703031 H 0.0 **** 0.06
2364 H 76.45059088112484 45.19592468297623 43.65835465625014 H 0.0 **** 0.06
2365 H 76.26382547188173 45.32773375859372 45.42304469273341 H 0.0 **** 0.06
2366 C 62.30277181784314 108.66000498218327 73.66664884648473 C 0.0 **** -0.24
2367 H 61.43021568365597 108.37127678684938 74.25215602596082 H 0.0 **** 0.06
2368 H 62.27746775687058 109.73531397064154 73.48385043765222 H 0.0 **** 0.06
2369 H 62.293918220157764 108.13020814609665 72.71487538764828 H 0.0 **** 0.06
2370 H 63.209352411041664 108.40608295607906 74.21660350945378 H 0.0 **** 0.06
2371 C 87.48025858695064 108.26873196094253 84.7693214306897 C 0.0 **** -0.24
2372 H 87.66536691919242 107.93954601370864 83.74612230380137 H 0.0 **** 0.06
2373 H 87.837323059769 107.50891612257145 85.4653334809388 H 0.0 **** 0.06
2374 H 86.41100046936629 108.42054192473582 84.9136738859296 H 0.0 **** 0.06
2375 H 88.00843870863349 109.20535609792422 84.95029074391834 H 0.0 **** 0.06
2376 C 72.88667201207807 32.843870349661756 3.969322114653359 C 0.0 **** -0.24
2377 H 72.11328255747617 33.120980022565846 4.686007447721892 H 0.0 **** 0.06
2378 H 73.38001385295865 31.930586556195635 4.303367697460898 H 0.0 **** 0.06
2379 H 73.61890132582539 33.64796169222893 3.8978784685286474 H 0.0 **** 0.06
2380 H 72.4333390482326 32.676599116526916 2.9927288634460787 H 0.0 **** 0.06
2381 C 77.09581742415041 8.717291272046657 70.93775479825706 C 0.0 **** -0.24
2382 H 77.00244046580694 8.03054723212667 71.77828032854529 H 0.0 **** 0.06
2383 H 76.63957696176672 8.273686973597027 70.05316466865975 H 0.0 **** 0.06
2384 H 78.1512957800678 8.911949181164593 70.74278379278746 H 0.0 **** 0.06
2385 H 76.59218208262853 9.653758646752271 71.17612453077794 H 0.0 **** 0.06
2386 C 100.07846233497355 5.332493939340111 91.72819119655884 C 0.0 **** -0.24
2387 H 100.72315101136294 5.02925422651478 92.55320335186013 H 0.0 **** 0.06
2388 H 99.5122832793995 6.218672237448487 92.01568760566376 H 0.0 **** 0.06
2389 H 99.39010943849411 4.522003238526565 91.48879200298961 H 0.0 **** 0.06
2390 H 100.68955764054778 5.559390946805479 90.85502391527616 H 0.0 **** 0.06
2391 C 68.73452066481627 77.31405886573901 85.72658702475118 C 0.0 **** -0.24
2392 H 69.56948201258604 77.25147869350383 86.42553781539334 H 0.0 **** 0.06
2393 H 68.1640127679085 78.2214645897443 85.92316887927149 H 0.0 **** 0.06
2394 H 68.08934162097506 76.44394025864642 85.85325801190402 H 0.0 **** 0.06
2395 H 69.11720217341042 77.33756586835966 84.70637962760864 H 0.0 **** 0.06
2396 C 53.12672164300653 77.6850714251604 105.02715206750435 C 0.0 **** -0.24
2397 H 52.777647955146136 78.68556036944295 105.28587659031803 H 0.0 **** 0.06
2398 H 52.345192129231094 76.95935814970943 105.25289470723543 H 0.0 **** 0.06
2399 H 54.01925370489562 77.45052233530873 105.60706076487068 H 0.0 **** 0.06
2400 H 53.363182409416254 77.64677245302852 103.96441677928424 H 0.0 **** 0.06
2401 C 87.90422296375094 50.02115754435715 79.20970224037725 C 0.0 **** -0.24
2402 H 87.62826877320111 50.489207631658246 78.26428841049987 H 0.0 **** 0.06
2403 H 87.12340801369551 49.32211752375571 79.50986709977607 H 0.0 **** 0.06
2404 H 88.01933969045226 50.788971725679346 79.97483189673746 H 0.0 **** 0.06
2405 H 88.84539408688633 49.48507368108699 79.08833147454627 H 0.0 **** 0.06
2406 C 47.56081528991452 49.897703955208634 50.31726662428211 C 0.0 **** -0.24
2407 H 48.2086674587246 49.94264687614499 51.19207661003012 H 0.0 **** 0.06
2408 H 46.759911610413724 49.17956198450541 50.49407523811425 H 0.0 **** 0.06
2409 H 48.14388249624759 49.58560230810928 49.45015814487756 H 0.0 **** 0.06
2410 H 47.13286213585502 50.88248190366514 50.13154285110932 H 0.0 **** 0.06
2411 C 17.938693384825484 32.92638259938033 97.40760477501537 C 0.0 **** -0.24
2412 H 17.969404138823208 32.09636678180587 96.70179499026828 H 0.0 **** 0.06
2413 H 18.514502252947636 33.762572862132174 97.00993670337188 H 0.0 **** 0.06
2414 H 18.365961758178344 32.609189200404586 98.35901528602821 H 0.0 **** 0.06
2415 H 16.904214465371126 33.2365872616092 97.55874494598456 H 0.0 **** 0.06
2416 C 104.93616038782329 92.65160744540705 0.9312391146181085 C 0.0 **** -0.24
2417 H 105.02992642440586 91.5729400269758 1.0585710244221644 H 0.0 **** 0.06
2418 H 105.84894335393847 93.13865949123283 1.2755637678757523 H 0.0 **** 0.06
2419 H 104.08871309925786 93.0139299670727 1.5135177129448465 H 0.0 **** 0.06
2420 H 104.7771795145618 92.87994981552458 -0.12240963232159174 H 0.0 **** 0.06
2421 C 8.725085691396629 98.6009328424904 38.55067265404611 C 0.0 **** -0.24
2422 H 9.227228592723932 97.77030546323215 39.04766619105078 H 0.0 **** 0.06
2423 H 9.447120898649572 99.15611747643345 37.95168512716563 H 0.0 **** 0.06
2424 H 8.290178982922995 99.26251089795065 39.30023687624342 H 0.0 **** 0.06
2425 H 7.936210775913565 98.2148080614649 37.90530308908083 H 0.0 **** 0.06
2426 C 11.274361488513403 46.22143834227523 1.7044190046393766 C 0.0 **** -0.24
2427 H 11.48551438925901 45.849103096152795 2.706373460810653 H 0.0 **** 0.06
2428 H 10.412796984482421 45.692434863008884 1.2951515325373748 H 0.0 **** 0.06
2429 H 12.140214348963966 46.053979304185916 1.0640307279041963 H 0.0 **** 0.06
2430 H 11.0570620388736 47.288244685065635 1.750862596908405 H 0.0 **** 0.06
2431 C 62.75674479125988 61.52115486388223 24.599476463261084 C 0.0 **** -0.24
2432 H 63.70299932235193 61.08715073271611 24.278713984659248 H 0.0 **** 0.06
2433 H 62.77130816287956 62.596640520647355 24.42437835989 H 0.0 **** 0.06
2434 H 62.61090702490628 61.32789678078264 25.6633968754696 H 0.0 **** 0.06
2435 H 61.94094737603871 61.070630291378876 24.03425169027608 H 0.0 **** 0.06
2436 C 80.5151458663351 88.92418407131377 20.060915251022067 C 0.0 **** -0.24
2437 H 80.11787497276998 88.38795872003297 20.921862402858068 H 0.0 **** 0.06
2438 H 81.43694956878194 88.44624771672137 19.728796814982672 H 0.0 **** 0.06
2439 H 80.72210286759721 89.95811346673574 20.339755244718333 H 0.0 **** 0.06
2440 H 79.78379854664756 88.9054493026778 19.252291099248993 H 0.0 **** 0.06
2441 C 7.342125206416824 108.18024763669985 94.73860197570559 C 0.0 **** -0.24
2442 H 6.905575394795079 108.11002833328867 93.74234328865174 H 0.0 **** 0.06
2443 H 6.561508984442753 108.03867518569842 95.48723239528152 H 0.0 **** 0.06
2444 H 7.795351960942696 109.16254530501536 94.86799135596499 H 0.0 **** 0.06
2445 H 8.103317155443932 107.40965897607066 94.85750849080404 H 0.0 **** 0.06
2446 C 78.19995580098087 91.5303472803837 87.55243405378835 C 0.0 **** -0.24
2447 H 77.8677566757499 92.56536931814713 87.47034873920472 H 0.0 **** 0.06
2448 H 77.96506148386482 91.15180771958558 88.5474779461272 H 0.0 **** 0.06
2449 H 79.27689754942651 91.4802771007964 87.38895513420817 H 0.0 **** 0.06
2450 H 77.69026669583648 90.92533886945523 86.8030165002505 H 0.0 **** 0.06
2451 C 93.21828716468269 28.141311950423642 30.01811183631085 C 0.0 **** -0.24
2452 H 92.89027728661614 28.51187579419269 29.04685088861929 H 0.0 **** 0.06
2453 H 93.19211652700909 27.051123767043237 30.018972094412135 H 0.0 **** 0.06
2454 H 92.55452298379464 28.52170806751846 30.79528287789971 H 0.0 **** 0.06
2455 H 94.2353927520399 28.4809202121927 30.21173073403348 H 0.0 **** 0.06
2456 C 36.06107854655005 42.15316005712156 100.79650093630495 C 0.0 **** -0.24
2457 H 36.00036884782577 41.429930216891634 101.60912738479227 H 0.0 **** 0.06
2458 H 35.19685144322105 42.8158511694421 100.83503454020749 H 0.0 **** 0.06
2459 H 36.07364986607537 41.62654190597973 99.8422687081559 H 0.0 **** 0.06
2460 H 36.975071617329235 42.739058070928344 100.90044859051267 H 0.0 **** 0.06
2461 C 3.6577093100829643 37.31832948134945 107.23229758085009 C 0.0 **** -0.24
2462 H 4.435629388900253 37.33220203102266 106.4683552995562 H 0.0 **** 0.06
2463 H 3.6602112320617692 36.35066643577122 107.7354376255308 H 0.0 **** 0.06
2464 H 2.686513294458649 37.481973246193945 106.763396772245 H 0.0 **** 0.06
2465 H 3.8479020151971213 38.107607783817855 107.95918844600415 H 0.0 **** 0.06
2466 C 83.54439980950067 29.916915009753723 73.34974026342195 C 0.0 **** -0.24
2467 H 82.71276759601136 29.214690320999438 73.41267070536293 H 0.0 **** 0.06
2468 H 83.1589682738676 30.922147919229047 73.17933723629697 H 0.0 **** 0.06
2469 H 84.19802987207225 29.63312705939481 72.52556494780745 H 0.0 **** 0.06
2470 H 84.10647415173008 29.89655405335074 74.28359075695295 H 0.0 **** 0.06
2471 C 18.14165186609074 54.65890906578168 62.66636319201872 C 0.0 **** -0.24
2472 H 18.81702431216985 54.70044985883783 61.81138113264565 H 0.0 **** 0.06
2473 H 17.12909174419937 54.89768964929755 62.34050783404459 H 0.0 **** 0.06
2474 H 18.46289601445818 55.37984106021085 63.41765746477236 H 0.0 **** 0.06
2475 H 18.15882935708578 53.65619722340835 63.093820529434254 H 0.0 **** 0.06
2476 C 1.9418014103249144 108.10442644463045 40.803356116806356 C 0.0 **** -0.24
2477 H 1.5071269634910438 107.15657690269666 40.48648513694624 H 0.0 **** 0.06
2478 H 1.145528146531971 108.8252724005971 40.98820970076906 H 0.0 **** 0.06
2479 H 2.600006280943818 108.48114317337959 40.0207504089032 H 0.0 **** 0.06
2480 H 2.515284874776756 107.95260369943297 41.71794315380987 H 0.0 **** 0.06
2481 C 78.36059119746882 2.1010502367307655 66.09579465494426 C 0.0 **** -0.24
2482 H 78.95683999725802 2.6957318562543824 66.78762844144308 H 0.0 **** 0.06
2483 H 77.34127162599303 2.488543494810238 66.06893319945516 H 0.0 **** 0.06
2484 H 78.34596365300986 1.0627281185941984 66.427271776758 H 0.0 **** 0.06
2485 H 78.79794264291672 2.1580962166858573 65.09907687821766 H 0.0 **** 0.06
2486 C 82.52889288963155 6.865495370185387 90.3058336090952 C 0.0 **** -0.24
2487 H 83.61364265596235 6.824197774790148 90.40971994010346 H 0.0 **** 0.06
2488 H 82.27119049968708 7.461169242856926 89.4294712207178 H 0.0 **** 0.06
2489 H 82.09578847287938 7.320751353905434 91.19671375633345 H 0.0 **** 0.06
2490 H 82.13728259516323 5.855165842349839 90.18715972400975 H 0.0 **** 0.06
2491 C 28.228137361501012 8.840264012640604 68.15273849709192 C 0.0 **** -0.24
2492 H 28.06092070216448 8.024532870063629 68.85662356682212 H 0.0 **** 0.06
2493 H 27.581134131020917 8.708562753824506 67.28526718375645 H 0.0 **** 0.06
2494 H 29.270507122227173 8.835884169882126 67.83294794411123 H 0.0 **** 0.06
2495 H 27.999687815971583 9.789697193438116 68.63661584333548 H 0.0 **** 0.06
2496 C 50.34391992796923 71.64188114375207 5.0490889603934335 C 0.0 **** -0.24
2497 H 49.42366876032312 71.93800963171907 4.5464623344823565 H 0.0 **** 0.06
2498 H 50.103487540409056 71.01009983498119 5.90483224267966 H 0.0 **** 0.06
2499 H 50.87390419141184 72.53121339899826 5.389842058647275 H 0.0 **** 0.06
2500 H 50.974494461564966 71.08670333811591 4.353900298128721 H 0.0 **** 0.06
2501 C 102.97547105541987 28.094340507045786 99.990445228763 C 0.0 **** -0.24
2502 H 102.2740440298918 28.37227636824639 99.20337491472901 H 0.0 **** 0.06
2503 H 103.41231914811303 28.99558614056332 100.42144865338872 H 0.0 **** 0.06
2504 H 103.76587196848335 27.472811927540818 99.5697737660573 H 0.0 **** 0.06
2505 H 102.45028734347463 27.53839001742 100.76588180960265 H 0.0 **** 0.06
2506 C 52.302153964956574 89.5656344798935 3.1084772505341434 C 0.0 **** -0.24
2507 H 51.602586841114686 89.17160327491183 2.370915633249713 H 0.0 **** 0.06
2508 H 51.79240127362084 90.29436093886204 3.7389396351396478 H 0.0 **** 0.06
2509 H 53.13603314425251 90.0467600997618 2.5967472969743906 H 0.0 **** 0.06
2510 H 52.67607977225666 88.74876645171389 3.7249380600910165 H 0.0 **** 0.06
2511 C 10.248803944857059 89.05166176001171 38.97658808106314 C 0.0 **** -0.24
2512 H 10.95803263305217 89.11032725198072 38.150999267961076 H 0.0 **** 0.06
2513 H 9.270079638799785 89.39309766520239 38.639279429589216 H 0.0 **** 0.06
2514 H 10.592233261141217 89.68348679943432 39.79521452068066 H 0.0 **** 0.06
2515 H 10.175711832900646 88.01964589378841 39.319726042187185 H 0.0 **** 0.06
2516 C 58.19099046711062 91.98660716533729 1.0808616752679256 C 0.0 **** -0.24
2517 H 57.10445460336359 92.05452916728544 1.0309892390773854 H 0.0 **** 0.06
2518 H 58.50651447631236 91.9653717537675 2.1242262068093822 H 0.0 **** 0.06
2519 H 58.632737842735025 92.85090493730759 0.5845376883706876 H 0.0 **** 0.06
2520 H 58.521193360298355 91.07363868803066 0.5832658820822019 H 0.0 **** 0.06
2521 C 10.46482502618366 12.572103721494017 64.75601561573252 C 0.0 **** -0.24
2522 H 10.771529358116481 11.95424328487826 65.5998839636194 H 0.0 **** 0.06
2523 H 9.399869845837543 12.430019304318733 64.57002264373398 H 0.0 **** 0.06
2524 H 11.030566237591955 12.283508271886717 63.86985059831942 H 0.0 **** 0.06
2525 H 10.657841539207965 13.620131971276692 64.98499874650913 H 0.0 **** 0.06
2526 C 76.18701656558233 49.5704830294797 48.92348599522455 C 0.0 **** -0.24
2527 H 75.76580144068757 48.61927928487984 48.59960319386312 H 0.0 **** 0.06
2528 H 77.18841024847256 49.407017699332584 49.32256327377149 H 0.0 **** 0.06
2529 H 75.55356688874197 50.003950448095 49.69712502332811 H 0.0 **** 0.06
2530 H 76.24043194550924 50.25107725921001 48.07387129120684 H 0.0 **** 0.06
2531 C 10.787563378811738 3.5580120125724477 16.934298464194995 C 0.0 **** -0.24
2532 H 11.659835848213774 3.7980771042558388 16.327612979220874 H 0.0 **** 0.06
2533 H 11.06270017430491 3.5751188725868843 17.9891904001268 H 0.0 **** 0.06
2534 H 10.423244696775377 2.5650338756362885 16.669673799079447 H 0.0 **** 0.06
2535 H 10.00447279595284 4.2938181978105945 16.750716678352774 H 0.0 **** 0.06
2536 C 4.7236602324600625 105.2436540011838 86.9710509133476 C 0.0 **** -0.24
2537 H 3.9133822487296612 104.63457907924425 87.37150712973295 H 0.0 **** 0.06
2538 H 4.350153495001649 106.24470129817912 86.75168598927274 H 0.0 **** 0.06
2539 H 5.102464590939263 104.787864488326 86.05633235904534 H 0.0 **** 0.06
2540 H 5.526613689804719 105.30777402745856 87.70557269249827 H 0.0 **** 0.06
2541 C 95.2333011377065 2.6115528718544567 35.817639338273125 C 0.0 **** -0.24
2542 H 95.82601842368715 3.4080907333461 35.3663316993601 H 0.0 **** 0.06
2543 H 95.88977516259752 1.7947538380250307 36.115969704852944 H 0.0 **** 0.06
2544 H 94.50411688543544 2.247629213859028 35.09323213164032 H 0.0 **** 0.06
2545 H 94.71282836477893 2.9990681830749963 36.69419219125405 H 0.0 **** 0.06
2546 C 15.653819135876745 51.72191107074617 103.020905747195 C 0.0 **** -0.24
2547 H 14.923162431219282 51.17169574870424 102.42800715235177 H 0.0 **** 0.06
2548 H 16.32266452728794 52.26865046485863 102.3556044768311 H 0.0 **** 0.06
2549 H 16.233108127187762 51.022496241160276 103.62379465109058 H 0.0 **** 0.06
2550 H 15.136794505468089 52.42420713868319 103.674361636995 H 0.0 **** 0.06
2551 C 26.57874713026348 4.4319010156793865 86.37722176925496 C 0.0 **** -0.24
2552 H 27.611068369741503 4.444070163428705 86.02653434562657 H 0.0 **** 0.06
2553 H 26.0498841279217 5.298861219152855 85.97914152987522 H 0.0 **** 0.06
2554 H 26.565903434986183 4.4669637997427 87.46693987156978 H 0.0 **** 0.06
2555 H 26.089779815724228 3.519459985496212 86.03674097913006 H 0.0 **** 0.06
2556 C 6.52813284008905 57.9727277148333 22.0558678115884 C 0.0 **** -0.24
2557 H 6.745045706628334 59.03697770914158 21.962098735789937 H 0.0 **** 0.06
2558 H 7.45725338656699 57.42698025264616 22.22515650960048 H 0.0 **** 0.06
2559 H 6.058714936615088 57.61552505216511 21.140063858363987 H 0.0 **** 0.06
2560 H 5.854172486653214 57.81225353954795 22.896670574426764 H 0.0 **** 0.06
2561 C 20.148538979821637 79.99977732584543 72.91455907408795 C 0.0 **** -0.24
2562 H 20.833071177451757 80.84704927598189 72.86863741189131 H 0.0 **** 0.06
2563 H 19.14204439263409 80.3585343413266 73.13311337527631 H 0.0 **** 0.06
2564 H 20.46960183645865 79.31589878269605 73.6987283952484 H 0.0 **** 0.06
2565 H 20.14939305486007 79.48014094444152 71.95612066136255 H 0.0 **** 0.06
2566 C 3.84368797578054 59.98743878824092 46.06773057544392 C 0.0 **** -0.24
2567 H 3.8313118903994052 61.070667301209426 45.946715334809916 H 0.0 **** 0.06
2568 H 3.4304981189464456 59.517062687949306 45.17490507173528 H 0.0 **** 0.06
2569 H 3.243322422604251 59.71242993033087 46.93553311395948 H 0.0 **** 0.06
2570 H 4.870150308842312 59.64980131380247 46.21506332418595 H 0.0 **** 0.06
2571 C 13.79974119844697 31.229600211633567 96.52875846809667 C 0.0 **** -0.24
2572 H 14.64651589452318 30.552677434050622 96.63948335844034 H 0.0 **** 0.06
2573 H 14.129864964312954 32.25490499763379 96.69625553517854 H 0.0 **** 0.06
2574 H 13.030457177268364 30.971799231986324 97.25655555885848 H 0.0 **** 0.06
2575 H 13.39243161725824 31.138990714334625 95.52178742215214 H 0.0 **** 0.06
2576 C 52.534568140766 94.13776783854202 37.70708445025247 C 0.0 **** -0.24
2577 H 51.54289946557054 94.57898069164011 37.807728999542235 H 0.0 **** 0.06
2578 H 52.679331524649285 93.79867894848337 36.68112773986712 H 0.0 **** 0.06
2579 H 52.62459279196767 93.29030946388275 38.3867297503532 H 0.0 **** 0.06
2580 H 53.290103512173346 94.88335745701788 37.95478242396098 H 0.0 **** 0.06
2581 C 98.91338999590545 95.95261319046892 4.590794248995767 C 0.0 **** -0.24
2582 H 99.71554251444769 96.2524962762357 5.2651208277543144 H 0.0 **** 0.06
2583 H 97.97043278504776 96.38104470383566 4.93500806900914 H 0.0 **** 0.06
2584 H 98.83611952144815 94.86557746166245 4.57797061768049 H 0.0 **** 0.06
2585 H 99.13069156961535 96.3133733967042 3.5855714129895038 H 0.0 **** 0.06
2586 C 21.250243087982682 72.63793935227704 9.792851708727524 C 0.0 **** -0.24
2587 H 21.36487815339339 72.21982027763767 8.79418761834312 H 0.0 **** 0.06
2588 H 20.99600375036809 71.84185866609397 10.494049869489734 H 0.0 **** 0.06
2589 H 20.45427852758158 73.38296082226253 9.785618504869687 H 0.0 **** 0.06
2590 H 22.18453975975035 73.1077559875448 10.100191783159065 H 0.0 **** 0.06
2591 C 33.587756634458515 44.295637101088005 30.794838333300163 C 0.0 **** -0.24
2592 H 32.85092380550134 44.47280024806031 31.578598174676785 H 0.0 **** 0.06
2593 H 34.02094758368007 45.245851688473465 30.4820992792761 H 0.0 **** 0.06
2594 H 33.103396181969146 43.81791658656084 29.942888832437376 H 0.0 **** 0.06
2595 H 34.375222030662485 43.645370587252955 31.176350579218393 H 0.0 **** 0.06
2596 C 7.723375991639898 55.01491255999326 77.01122996014305 C 0.0 **** -0.24
2597 H 8.04284956327146 56.03648137095348 76.80346639025883 H 0.0 **** 0.06
2598 H 8.121095996217605 54.700382084843284 77.97631765637976 H 0.0 **** 0.06
2599 H 8.096740681462393 54.35223248685554 76.23043114042804 H 0.0 **** 0.06
2600 H 6.635019888810177 54.97230367382156 77.0350055778513 H 0.0 **** 0.06
2601 C 19.019650882051565 48.434494256707865 0.14399497338135347 C 0.0 **** -0.24
2602 H 18.34995860556819 49.28167920311188 0.2921056986298254 H 0.0 **** 0.06
2603 H 19.24915398341477 48.334349218575994 -0.9177362797389605 H 0.0 **** 0.06
2604 H 18.537483377642616 47.52390712292072 0.4984881242703807 H 0.0 **** 0.06
2605 H 19.94227254673092 48.59876945992664 0.7002240271847029 H 0.0 **** 0.06
2606 C 68.70843600352867 90.65633193017317 94.93932017187466 C 0.0 **** -0.24
2607 H 69.34178411389576 91.34570838040352 94.38021089148586 H 0.0 **** 0.06
2608 H 67.66126392226232 90.92003691340221 94.7855240092675 H 0.0 **** 0.06
2609 H 68.94738113378867 90.7225537233148 96.00017864623983 H 0.0 **** 0.06
2610 H 68.88154092995865 89.63901204160098 94.59040797680039 H 0.0 **** 0.06
2611 C 47.354833395184045 50.67711631426974 8.18459969458624 C 0.0 **** -0.24
2612 H 48.12479429323548 50.16994865088412 7.603560953763093 H 0.0 **** 0.06
2613 H 47.01876181455498 50.0235632826043 8.990636463901609 H 0.0 **** 0.06
2614 H 46.512032305453545 50.91927348456059 7.537425007334974 H 0.0 **** 0.06
2615 H 47.764292521795824 51.59502475828424 8.607297239157646 H 0.0 **** 0.06
2616 C 65.49349893949305 80.07768803752298 44.10252385011195 C 0.0 **** -0.24
2617 H 65.72408147763525 81.14263446884183 44.12428706524882 H 0.0 **** 0.06
2618 H 65.9375697956209 79.59260686603959 44.972197485119594 H 0.0 **** 0.06
2619 H 65.9003102888887 79.63702940773818 43.192853956486076 H 0.0 **** 0.06
2620 H 64.41303883096076 79.94028601123287 44.12161384239463 H 0.0 **** 0.06
2621 C 21.2362230500367 73.678608338032 51.00940431893321 C 0.0 **** -0.24
2622 H 20.874830696816787 74.30604869351245 50.19409574186864 H 0.0 **** 0.06
2623 H 21.868368818920203 72.88833869780409 50.60603051755652 H 0.0 **** 0.06
2624 H 20.387085065707367 73.23481506905733 51.52976776324954 H 0.0 **** 0.06
2625 H 21.81264170858725 74.28598672423355 51.70697214560056 H 0.0 **** 0.06
2626 C 42.05732679879757 82.31922116870807 66.0535596765684 C 0.0 **** -0.24
2627 H 41.34863218547279 82.77941682259184 65.36550681817874 H 0.0 **** 0.06
2628 H 41.5230611271438 81.66543074743664 66.74309441263125 H 0.0 **** 0.06
2629 H 42.574163971818535 83.09694067442564 66.61653535130307 H 0.0 **** 0.06
2630 H 42.784418244075646 81.73524498146375 65.48930290439296 H 0.0 **** 0.06
2631 C 59.33148128785467 91.29049049747195 6.613599755057329 C 0.0 **** -0.24
2632 H 60.095593746206816 91.29939278634117 7.391089163436531 H 0.0 **** 0.06
2633 H 58.39943033015806 90.90270765566572 7.0245819178735935 H 0.0 **** 0.06
2634 H 59.65920662634889 90.65422384891264 5.790548848650827 H 0.0 **** 0.06
2635 H 59.173670357880965 92.30541290296442 6.247965905206733 H 0.0 **** 0.06
2636 C 69.20441477965142 30.546855056048514 4.058522983475228 C 0.0 **** -0.24
2637 H 70.0366548978281 30.138167465565978 4.631940562531781 H 0.0 **** 0.06
2638 H 69.26018401037055 31.635496770451702 4.063092697741155 H 0.0 **** 0.06
2639 H 68.26333078128823 30.228406080405122 4.5074996502928855 H 0.0 **** 0.06
2640 H 69.25810453111785 30.183738616217354 3.0317188285238785 H 0.0 **** 0.06
2641 C 48.65971229461778 86.033867903562 41.03348315568843 C 0.0 **** -0.24
2642 H 48.09212249452305 85.13957163153829 41.287335029642975 H 0.0 **** 0.06
2643 H 48.08075331390093 86.64844466755616 40.343753651449305 H 0.0 **** 0.06
2644 H 49.599785477949084 85.74478427967404 40.56215312384734 H 0.0 **** 0.06
2645 H 48.86817187912273 86.60164014163232 41.94072688850605 H 0.0 **** 0.06
2646 C 62.9204743800217 60.594609560397544 0.7494643570727533 C 0.0 **** -0.24
2647 H 62.96362390274993 60.14699179099914 1.7424982569473002 H 0.0 **** 0.06
2648 H 62.45367472202557 59.895297280492926 0.05576393135297053 H 0.0 **** 0.06
2649 H 63.93104440468248 60.823390119977105 0.4110097128472887 H 0.0 **** 0.06
2650 H 62.334666128986214 61.512944057170714 0.7905169204970832 H 0.0 **** 0.06
2651 C 39.519499591477455 17.714204891642765 97.23835122971798 C 0.0 **** -0.24
2652 H 39.91725616647324 17.678411181885537 98.25190059452052 H 0.0 **** 0.06
2653 H 38.86223262215508 18.57812308072363 97.13615342422901 H 0.0 **** 0.06
2654 H 38.95564785607232 16.803520333898177 97.03717045882735 H 0.0 **** 0.06
2655 H 40.34160396234262 17.797003349225406 96.52757934471242 H 0.0 **** 0.06
2656 C 65.87843226428367 8.494442936633702 24.856048796034116 C 0.0 **** -0.24
2657 H 65.1123519983002 8.383824170570701 24.088241264930417 H 0.0 **** 0.06
2658 H 66.68653545170099 9.11887655934334 24.474259871640584 H 0.0 **** 0.06
2659 H 66.27120063825828 7.513232788480417 25.12035818540886 H 0.0 **** 0.06
2660 H 65.44267996047228 8.96234955555262 25.73854024897804 H 0.0 **** 0.06
2661 C 68.07656118704674 79.39932616950321 73.54132024556759 C 0.0 **** -0.24
2662 H 67.18842546368336 79.87563190094409 73.95691579867253 H 0.0 **** 0.06
2663 H 68.27274645140466 79.8016635521858 72.54746923261615 H 0.0 **** 0.06
2664 H 67.91420864798226 78.32370764554474 73.47317114327899 H 0.0 **** 0.06
2665 H 68.93104507593944 79.59702370262818 74.18892726999206 H 0.0 **** 0.06
2666 C 54.5627208752077 35.23231305589079 94.13646327419875 C 0.0 **** -0.24
2667 H 53.8366086881103 34.71959919597121 93.50526007854836 H 0.0 **** 0.06
2668 H 54.07461254530597 35.56679831765202 95.05285719644252 H 0.0 **** 0.06
2669 H 54.96304920625994 36.093805384657365 93.60226008868108 H 0.0 **** 0.06
2670 H 55.37489593246206 34.54927069149191 94.38552686720547 H 0.0 **** 0.06
2671 C 102.0880368016982 59.557303265840574 40.54079911318337 C 0.0 **** -0.24
2672 H 103.0238940061918 59.52895290929348 39.98185773857199 H 0.0 **** 0.06
2673 H 101.3413200302443 58.95025705500558 40.02899463770365 H 0.0 **** 0.06
2674 H 101.73637954402433 60.58655377455608 40.607405379613766 H 0.0 **** 0.06
2675 H 102.25257732096144 59.16313789537787 41.54403985332132 H 0.0 **** 0.06
2676 C 47.530816481318 109.2548523552978 42.0649619995373 C 0.0 **** -0.24
2677 H 47.912034431679245 110.27348566881517 41.99602804600348 H 0.0 **** 0.06
2678 H 48.278641270193106 108.56102668833215 41.67933011024682 H 0.0 **** 0.06
2679 H 46.61720732772352 109.16855516376474 41.47747503689158 H 0.0 **** 0.06
2680 H 47.316655580899464 109.01593527387672 43.107478514381185 H 0.0 **** 0.06
2681 C 79.66149141809694 93.07211046374272 27.266579115883175 C 0.0 **** -0.24
2682 H 78.8090706987503 92.68378775270622 27.823269527042697 H 0.0 **** 0.06
2683 H 80.37739220119448 93.51403540801834 27.960497221086428 H 0.0 **** 0.06
2684 H 79.32052121998123 93.8314184553683 26.56271366866332 H 0.0 **** 0.06
2685 H 80.13865638052903 92.25825562773406 26.719881019481434 H 0.0 **** 0.06
2686 C 71.95761416416872 107.42655358926024 105.55828457669715 C 0.0 **** -0.24
2687 H 70.87863583660686 107.55619990198835 105.63950920765814 H 0.0 **** 0.06
2688 H 72.39230667339092 108.29891331643239 105.06976250150775 H 0.0 **** 0.06
2689 H 72.1735629627056 106.5350460061882 104.96985600199018 H 0.0 **** 0.06
2690 H 72.38696647694405 107.316862263851 106.55457434925354 H 0.0 **** 0.06
2691 C 37.62604405042501 21.655241298202753 77.51557291813108 C 0.0 **** -0.24
2692 H 38.3908348226895 20.913027489891363 77.28917161890544 H 0.0 **** 0.06
2693 H 36.725861077728155 21.152091680955778 77.87091785439661 H 0.0 **** 0.06
2694 H 37.39283211254187 22.22401731801706 76.6158736030802 H 0.0 **** 0.06
2695 H 37.99337419647051 22.331159025488745 78.28831070908983 H 0.0 **** 0.06
2696 C 86.03241626637987 59.40151060711399 64.74435647402026 C 0.0 **** -0.24
2697 H 85.0785296621479 59.60296119340603 65.23230923252436 H 0.0 **** 0.06
2698 H 86.83209440611357 59.42748724158096 65.48519383477213 H 0.0 **** 0.06
2699 H 86.21745846561033 60.159228298224605 63.98272128157811 H 0.0 **** 0.06
2700 H 86.00069257800179 58.417596623882886 64.27803398088781 H 0.0 **** 0.06
2701 C 51.18351575682769 39.48170889883625 108.66642172307843 C 0.0 **** -0.24
2702 H 52.12591310108656 39.718388704202106 108.17196160913477 H 0.0 **** 0.06
2703 H 50.51236205669962 38.99771968439954 107.95667526777629 H 0.0 **** 0.06
2704 H 50.72472715042122 40.3997290616988 109.03258127821033 H 0.0 **** 0.06
2705 H 51.372024863680736 38.81007906351451 109.50399353884632 H 0.0 **** 0.06
2706 C 44.41205356033734 70.78347516752004 14.93625550853913 C 0.0 **** -0.24
2707 H 43.85950494264699 71.35407808990412 15.68250893599896 H 0.0 **** 0.06
2708 H 45.238017414721725 71.38641612251159 14.556337256882994 H 0.0 **** 0.06
2709 H 43.74652291237935 70.52037545930823 14.114330728408014 H 0.0 **** 0.06
2710 H 44.80473293847767 69.87347773609937 15.391150550920116 H 0.0 **** 0.06
2711 C 95.83347179630142 29.355323701451084 54.81980761294664 C 0.0 **** -0.24
2712 H 95.46979764381932 29.53252648167313 55.83212879035938 H 0.0 **** 0.06
2713 H 94.98865312745777 29.327851321354956 54.13037115297641 H 0.0 **** 0.06
2714 H 96.36226007857742 28.403384439879915 54.785934302245906 H 0.0 **** 0.06
2715 H 96.5117320633252 30.159349946383713 54.5326966381277 H 0.0 **** 0.06
2716 C 100.59470485440674 95.0385447643105 93.83611255266501 C 0.0 **** -0.24
2717 H 100.99169036524106 95.76736982144602 94.54286032393802 H 0.0 **** 0.06
2718 H 101.2549177158705 94.171918465002 93.79788020803153 H 0.0 **** 0.06
2719 H 100.53046101333146 95.49011459404875 92.84605331762816 H 0.0 **** 0.06
2720 H 99.60098386728447 94.72553098071957 94.15673825681583 H 0.0 **** 0.06
2721 C 73.74264153916062 20.65426371228311 100.12034087366067 C 0.0 **** -0.24
2722 H 73.96269363600044 21.71509913347036 99.99982880857135 H 0.0 **** 0.06
2723 H 72.80164728324118 20.419126673332045 99.62084877856364 H 0.0 **** 0.06
2724 H 73.66026899881305 20.418361432233326 101.18137892616028 H 0.0 **** 0.06
2725 H 74.54586398496906 20.064829535982042 99.67794294395196 H 0.0 **** 0.06
2726 C 40.77998066546405 49.43116776355947 108.504110044067 C 0.0 **** -0.24
2727 H 40.061365757875876 50.24555796208105 108.59702985313108 H 0.0 **** 0.06
2728 H 41.686601208109295 49.79925413939321 108.0235931485067 H 0.0 **** 0.06
2729 H 40.34793248455327 48.63212780642601 107.90158420823425 H 0.0 **** 0.06
2730 H 41.022894107631345 49.047708491207004 109.49508426581662 H 0.0 **** 0.06
2731 C 80.12149512221401 45.113816328881555 65.28154072907006 C 0.0 **** -0.24
2732 H 80.95767943021269 45.49366268479086 65.86714924093468 H 0.0 **** 0.06
2733 H 80.3946310692823 45.099426755865636 64.22651724726751 H 0.0 **** 0.06
2734 H 79.25514755299537 45.76090917274014 65.42389829271201 H 0.0 **** 0.06
2735 H 79.8782293379532 44.10369684226136 65.60850427622371 H 0.0 **** 0.06
2736 C 39.1008946494143 64.26166864538759 57.30510025946597 C 0.0 **** -0.24
2737 H 39.01814020654945 64.29187592045321 56.2182497036122 H 0.0 **** 0.06
2738 H 38.104936870542645 64.32176119631148 57.74605484281341 H 0.0 **** 0.06
2739 H 39.701829513752216 65.10438792700593 57.64756396293714 H 0.0 **** 0.06
2740 H 39.57657053438419 63.32887273863487 57.60780160939399 H 0.0 **** 0.06
2741 C 75.05714578550803 34.23863359916797 96.07626012440625 C 0.0 **** -0.24
2742 H 75.73311065831471 34.21526782733187 95.22061272663996 H 0.0 **** 0.06
2743 H 74.14890339946018 33.68642403071567 95.8354651698877 H 0.0 **** 0.06
2744 H 74.80330669113346 35.272567433539706 96.30952047640608 H 0.0 **** 0.06
2745 H 75.54385185882583 33.780318312405655 96.93650084788828 H 0.0 **** 0.06
2746 C 29.973090377861283 91.74482432807834 48.93425079706947 C 0.0 **** -0.24
2747 H 29.908836524217776 92.1969462652734 47.944569002203764 H 0.0 **** 0.06
2748 H 30.726520871443086 92.26851743031098 49.52373612671994 H 0.0 **** 0.06
2749 H 30.25163089833839 90.69638549460723 48.83744708333393 H 0.0 **** 0.06
2750 H 29.005647901008217 91.82009222285805 49.430284706591465 H 0.0 **** 0.06
2751 C 50.1878924960202 1.512692745704328 81.50317631565005 C 0.0 **** -0.24
2752 H 50.78274864177763 0.6909289677145125 81.10312709843453 H 0.0 **** 0.06
2753 H 50.174007939030275 1.4545435887040412 82.59190529831858 H 0.0 **** 0.06
2754 H 49.16814057248257 1.4411796537877706 81.12264006199247 H 0.0 **** 0.06
2755 H 50.62571489040397 2.4614003769736286 81.19420026478993 H 0.0 **** 0.06
2756 C 19.55345110100389 93.97907433378805 48.68750927005152 C 0.0 **** -0.24
2757 H 19.871075194281765 93.10729190987212 49.258863946297026 H 0.0 **** 0.06
2758 H 20.371397760166946 94.31002440749376 48.047313838729565 H 0.0 **** 0.06
2759 H 19.279918283682292 94.78203079901283 49.37170482348739 H 0.0 **** 0.06
2760 H 18.6935409817628 93.71628452383999 48.07198272310774 H 0.0 **** 0.06
2761 C 103.72149575276575 16.452365153510968 98.00278014262196 C 0.0 **** -0.24
2762 H 102.68367185004422 16.223924512111523 97.759828927635 H 0.0 **** 0.06
2763 H 104.3732750605962 16.04637557519763 97.22825827066498 H 0.0 **** 0.06
2764 H 103.97680318838005 16.004956603747644 98.96304600932672 H 0.0 **** 0.06
2765 H 103.85236254795541 17.53249291123106 98.05823924084609 H 0.0 **** 0.06
2766 C 77.43952952275772 66.15045584089728 99.9629047690524 C 0.0 **** -0.24
2767 H 76.63414508460944 66.87922790263752 99.878875082044 H 0.0 **** 0.06
2768 H 78.39900901225141 66.65667880821877 99.8535369690896 H 0.0 **** 0.06
2769 H 77.33372574934012 65.39925122478002 99.18047200527394 H 0.0 **** 0.06
2770 H 77.392275564633 65.66863008255979 100.93898868815702 H 0.0 **** 0.06
2771 C 42.06889172197731 21.09405667670751 20.151822116499858 C 0.0 **** -0.24
2772 H 41.3916715964304 21.548963472481148 20.874453803645423 H 0.0 **** 0.06
2773 H 41.74621173502521 21.34992879856324 19.141722598944625 H 0.0 **** 0.06
2774 H 42.05746036450677 20.011284728393946 20.27347760081588 H 0.0 **** 0.06
2775 H 43.07950408212349 21.467968192370165 20.315225564108147 H 0.0 **** 0.06
2776 C 6.463193335274752 105.13944740489787 29.473392375511537 C 0.0 **** -0.24
2777 H 7.295112643108382 104.52172435288973 29.13458213731505 H 0.0 **** 0.06
2778 H 6.848928481256507 105.98999886360399 30.035901489660148 H 0.0 **** 0.06
2779 H 5.808649301616697 104.54735313427057 30.112481816156077 H 0.0 **** 0.06
2780 H 5.902376537446457 105.49817642229563 28.611275914323784 H 0.0 **** 0.06
2781 C 74.8055097380158 2.923307254506554 42.45769464592442 C 0.0 **** -0.24
2782 H 75.58250813722157 2.431424289275796 43.04413865286048 H 0.0 **** 0.06
2783 H 74.74212575870713 3.97294626357737 42.745787196255776 H 0.0 **** 0.06
2784 H 73.84842091187286 2.436174159475442 42.6436978196393 H 0.0 **** 0.06
2785 H 75.04999468766478 2.8502753725184675 41.39823946062532 H 0.0 **** 0.06
2786 C 99.01801641025281 32.25019528591622 78.90283614436136 C 0.0 **** -0.24
2787 H 99.66742597357788 31.381748254024387 79.00586409282582 H 0.0 **** 0.06
2788 H 98.6421063639965 32.54120160723153 79.884662460075 H 0.0 **** 0.06
2789 H 98.18013450468852 32.00254879356396 78.25153746952243 H 0.0 **** 0.06
2790 H 99.58267028179061 33.07676100048353 78.47014104844591 H 0.0 **** 0.06
2791 C 65.97116012069121 46.25920083278042 24.166905804449613 C 0.0 **** -0.24
2792 H 66.77555239741262 46.222042553515806 23.431526143540253 H 0.0 **** 0.06
2793 H 65.7660114057882 47.298220630977546 24.426738018574184 H 0.0 **** 0.06
2794 H 66.26988953329086 45.71199635606102 25.061100341245492 H 0.0 **** 0.06
2795 H 65.07298791084773 45.80567610752487 23.746340795961373 H 0.0 **** 0.06
2796 C 36.038842104389914 92.11304353790446 83.2060589352608 C 0.0 **** -0.24
2797 H 35.788534115659445 92.83007655146356 83.98772665004296 H 0.0 **** 0.06
2798 H 36.75683922992107 92.56066049236433 82.51810246441666 H 0.0 **** 0.06
2799 H 35.134593793619956 91.84055598539932 82.66112460210543 H 0.0 **** 0.06
2800 H 36.47386913654947 91.22135386979303 83.65608651222196 H 0.0 **** 0.06
2801 C 99.09728405388964 23.650872567214122 53.480371577076546 C 0.0 **** -0.24
2802 H 100.00534527270855 24.156394212647484 53.151027415748516 H 0.0 **** 0.06
2803 H 98.32502100353595 24.391830124959768 53.68840179330191 H 0.0 **** 0.06
2804 H 99.30695884498633 23.08029930534549 54.38546136709459 H 0.0 **** 0.06
2805 H 98.75274132846165 22.976422512185096 52.69671905382064 H 0.0 **** 0.06
2806 C 1.5038144245939407 39.59070493882437 62.48772191812486 C 0.0 **** -0.24
2807 H 2.18363110552599 39.12812593173817 61.77242702108832 H 0.0 **** 0.06
2808 H 0.6005966715634372 39.91765528219264 61.97253551731953 H 0.0 **** 0.06
2809 H 1.990941895839228 40.449789124042525 62.94822383673407 H 0.0 **** 0.06
2810 H 1.2403265669646544 38.86617415057745 63.25858842669493 H 0.0 **** 0.06
2811 C 78.60582925491576 70.80133409438989 61.35162827938217 C 0.0 **** -0.24
2812 H 77.53121918130772 70.62616875388483 61.411245409201214 H 0.0 **** 0.06
2813 H 78.80680322524913 71.5725470840373 60.60598426115541 H 0.0 **** 0.06
2814 H 79.10858788229491 69.87802138024111 61.06455470505533 H 0.0 **** 0.06
2815 H 78.97431074715536 71.12990985396797 62.323134427992656 H 0.0 **** 0.06
2816 C 7.007585051311253 33.231383477426675 23.46214375705398 C 0.0 **** -0.24
2817 H 6.2353685379759725 32.49714090208977 23.691336587132184 H 0.0 **** 0.06
2818 H 7.451631374300703 33.001664497340926 22.493055027868877 H 0.0 **** 0.06
2819 H 7.77940896643787 33.19843072277405 24.23267081213197 H 0.0 **** 0.06
2820 H 6.565652665200048 34.227425045145594 23.433809503319083 H 0.0 **** 0.06
2821 C 106.19686514676427 95.21424316988194 78.54129433386132 C 0.0 **** -0.24
2822 H 105.30435735950512 95.0399777757961 77.93874194622954 H 0.0 **** 0.06
2823 H 107.0485537569371 94.71405560363284 78.08136964097248 H 0.0 **** 0.06
2824 H 106.04059688411029 94.81915199941398 79.54467263735668 H 0.0 **** 0.06
2825 H 106.39095363170905 96.28572995273856 78.5992826754835 H 0.0 **** 0.06
2826 C 76.50039264745585 75.08008652905133 37.74267700679627 C 0.0 **** -0.24
2827 H 77.47626272852891 75.15612953629011 37.26415547229959 H 0.0 **** 0.06
2828 H 76.32816609547666 75.96312385033913 38.35909166498095 H 0.0 **** 0.06
2829 H 76.47063311040604 74.18866727125463 38.36899156381082 H 0.0 **** 0.06
2830 H 75.72486253768942 75.01264546020631 36.97896130602459 H 0.0 **** 0.06
2831 C 31.602302948261872 41.12027206844027 105.38249588776165 C 0.0 **** -0.24
2832 H 32.29734987199725 40.31654612501103 105.13806127433323 H 0.0 **** 0.06
2833 H 30.729888428950836 40.70544705146767 105.88767901268284 H 0.0 **** 0.06
2834 H 31.288810409182794 41.62097658453018 104.46657980642168 H 0.0 **** 0.06
2835 H 32.09561415705838 41.838095777710066 106.03939324504881 H 0.0 **** 0.06
2836 C 42.86374874840095 30.536759319113287 85.05190591482562 C 0.0 **** -0.24
2837 H 43.21983949322376 31.55542944703643 84.89752513176717 H 0.0 **** 0.06
2838 H 43.05819793743106 30.236919423450217 86.08223618821506 H 0.0 **** 0.06
2839 H 43.38388032298968 29.862656314576327 84.37245019598492 H 0.0 **** 0.06
2840 H 41.79152794898911 30.493647987188808 84.8574093974944 H 0.0 **** 0.06
2841 C 54.1379864963958 64.4046166249359 52.110404479969446 C 0.0 **** -0.24
2842 H 54.16642840596273 63.33905372722626 51.88197802032778 H 0.0 **** 0.06
2843 H 53.69685684257314 64.94455711405465 51.27327085762292 H 0.0 **** 0.06
2844 H 55.152268113186096 64.76555236166035 52.28335274177158 H 0.0 **** 0.06
2845 H 53.53707929863708 64.56721419233537 53.00604364452417 H 0.0 **** 0.06
2846 C 98.78650915281469 13.674937508996805 30.983992972699866 C 0.0 **** -0.24
2847 H 98.10951476531955 13.561084839356898 30.13705492520444 H 0.0 **** 0.06
2848 H 98.93869666093008 14.736192882857644 31.18518677568133 H 0.0 **** 0.06
2849 H 99.74264256992097 13.20805890624344 30.750855579942794 H 0.0 **** 0.06
2850 H 98.35292620793075 13.19730594431763 31.862138029144234 H 0.0 **** 0.06
2851 C 103.41072284794527 52.405836312454426 85.40284861410423 C 0.0 **** -0.24
2852 H 104.1100977936922 51.9881582506863 84.67785506966204 H 0.0 **** 0.06
2853 H 102.50365737025692 51.80131183709358 85.4221168601267 H 0.0 **** 0.06
2854 H 103.16184012802273 53.428073328771404 85.1192561255877 H 0.0 **** 0.06
2855 H 103.87019187981247 52.404318079175596 86.39152337928269 H 0.0 **** 0.06
2856 C 105.94144548168879 87.03063327751931 4.1825810136420785 C 0.0 **** -0.24
2857 H 106.2038000627455 87.17302912426555 5.230396506234172 H 0.0 **** 0.06
2858 H 104.98023446690397 86.52062569201257 4.115071493137975 H 0.0 **** 0.06
2859 H 106.70799387967526 86.42798669723629 3.694564049145498 H 0.0 **** 0.06
2860 H 105.87458416301604 88.00034135077397 3.6902065248920053 H 0.0 **** 0.06
2861 C 108.68427742538202 76.72109345793581 83.19419234962004 C 0.0 **** -0.24
2862 H 108.54063241297021 77.07965437243485 82.17431828592852 H 0.0 **** 0.06
2863 H 109.61540254059571 77.1255801487485 83.59266626801698 H 0.0 **** 0.06
2864 H 108.73190403304972 75.63203960789735 83.19267857442105 H 0.0 **** 0.06
2865 H 107.85021028259138 77.04755681378799 83.814935867907 H 0.0 **** 0.06
2866 C 86.94103767937483 4.877589323463907 71.66638230065296 C 0.0 **** -0.24
2867 H 86.18659277119397 5.656794084320973 71.77026991691872 H 0.0 **** 0.06
2868 H 87.39949378811336 4.943366406577002 70.67930009963725 H 0.0 **** 0.06
2869 H 86.4725674819835 3.900514961008172 71.78523614267488 H 0.0 **** 0.06
2870 H 87.70624617323506 5.008956420751879 72.43210585462374 H 0.0 **** 0.06
2871 C 14.253264144015134 84.23047528346117 79.36962896429662 C 0.0 **** -0.24
2872 H 14.972855700364903 85.04838528314895 79.3584027035732 H 0.0 **** 0.06
2873 H 13.490225927470647 84.40757174471986 78.61040140836585 H 0.0 **** 0.06
2874 H 13.782186554309419 84.17471165419494 80.35147988610015 H 0.0 **** 0.06
2875 H 14.764937981396088 83.2921507514767 79.15841163694733 H 0.0 **** 0.06
2876 C 48.64818496625282 86.76045624637514 97.88699263319182 C 0.0 **** -0.24
2877 H 48.577151038265974 87.8277215094515 97.67719057553302 H 0.0 **** 0.06
2878 H 48.91087418168745 86.2278823985888 96.9731844938996 H 0.0 **** 0.06
2879 H 47.68925715121576 86.39866376388714 98.25617611147041 H 0.0 **** 0.06
2880 H 49.416710649761534 86.58965618483678 98.64157631345346 H 0.0 **** 0.06
2881 C 15.948439372191515 65.02208079406599 5.942656595648259 C 0.0 **** -0.24
2882 H 16.82871787510328 64.39424346032888 5.806510062815505 H 0.0 **** 0.06
2883 H 15.074984501803897 64.51924841812304 5.52601752362898 H 0.0 **** 0.06
2884 H 16.099127203942174 65.97340311714399 5.431465902655987 H 0.0 **** 0.06
2885 H 15.790927907916412 65.20142818066809 7.006632893492565 H 0.0 **** 0.06
2886 C 20.157307591493236 34.33973939922473 94.15080816356294 C 0.0 **** -0.24
2887 H 20.44218412294873 35.38819278798812 94.23757053179708 H 0.0 **** 0.06
2888 H 20.776899565201887 33.73871016006052 94.81543169707737 H 0.0 **** 0.06
2889 H 20.300916845854072 34.0087502969341 93.12195370830835 H 0.0 **** 0.06
2890 H 19.108310207520102 34.223911720851135 94.42660770777081 H 0.0 **** 0.06
2891 C 54.85690817907458 12.360392692445089 52.319489781982185 C 0.0 **** -0.24
2892 H 55.92516593546611 12.321580866839824 52.53459653110095 H 0.0 **** 0.06
2893 H 54.69656514060324 12.880109071795815 51.3749275267876 H 0.0 **** 0.06
2894 H 54.34536561263481 12.894491973407582 53.12036245328476 H 0.0 **** 0.06
2895 H 54.463563981931514 11.346131813594383 52.24920401152978 H 0.0 **** 0.06
2896 C 0.6158884759635157 10.542186601961248 100.91761330539026 C 0.0 **** -0.24
2897 H 1.649611713674716 10.435689628645036 101.24602540905909 H 0.0 **** 0.06
2898 H -0.006043077469939817 10.833850185456924 101.76495352449496 H 0.0 **** 0.06
2899 H 0.26236631855451265 9.592683350447999 100.51672743587704 H 0.0 **** 0.06
2900 H 0.5582936015662767 11.307456142573471 100.14404095089685 H 0.0 **** 0.06
2901 C 53.85027344127121 67.76977535847075 78.99189382938562 C 0.0 **** -0.24
2902 H 53.21275648303876 68.07905590828159 79.81991648188651 H 0.0 **** 0.06
2903 H 54.83013319635069 67.48243364842904 79.37459804600473 H 0.0 **** 0.06
2904 H 53.96129206292531 68.59635940963989 78.28975028381629 H 0.0 **** 0.06
2905 H 53.39652059287175 66.91915466754855 78.4821078774047 H 0.0 **** 0.06
2906 C 96.01112837438316 44.17522995354858 72.9776338087749 C 0.0 **** -0.24
2907 H 95.04005974923255 44.00318592232048 73.44251601853324 H 0.0 **** 0.06
2908 H 96.67953593615678 43.3478451369682 73.21582398136945 H 0.0 **** 0.06
2909 H 96.43412774267124 45.106049086906694 73.35466843486554 H 0.0 **** 0.06
2910 H 95.88838788404504 44.24391039167091 71.89705266890098 H 0.0 **** 0.06
2911 C 46.902695845500325 1.1014399971545004 72.9965306853413 C 0.0 **** -0.24
2912 H 46.44016968564321 1.1500067087567913 73.98171271338434 H 0.0 **** 0.06
2913 H 47.96924307672638 1.310421755406253 73.08491923957799 H 0.0 **** 0.06
2914 H 46.44128969217277 1.8406390694206607 72.34169180617207 H 0.0 **** 0.06
2915 H 46.76087827798287 0.10571186436902735 72.57722877538829 H 0.0 **** 0.06
2916 C 63.23633268336859 33.50383685725569 66.8300637783583 C 0.0 **** -0.24
2917 H 62.481022417904455 34.18079880832022 67.23101496478358 H 0.0 **** 0.06
2918 H 62.778194053338936 32.845701624357105 66.09123841771356 H 0.0 **** 0.06
2919 H 63.656177682174444 32.90741308392734 67.6393064252805 H 0.0 **** 0.06
2920 H 64.02856012791182 34.08528579065029 66.35817640695728 H 0.0 **** 0.06
2921 C 88.90473222884174 67.89349275282683 5.653026819122772 C 0.0 **** -0.24
2922 H 88.90874532559201 68.19995141306771 4.606268048454012 H 0.0 **** 0.06
2923 H 89.51504199627203 68.58351000956327 6.234701968419273 H 0.0 **** 0.06
2924 H 89.31176562156907 66.8860191514704 5.73714938406124 H 0.0 **** 0.06
2925 H 87.88209893018791 67.90474074669208 6.0307774076628675 H 0.0 **** 0.06
2926 C 8.261393896107279 54.27278012537545 50.890657934557765 C 0.0 **** -0.24
2927 H 7.89367940515973 54.55809885033882 49.90492615012147 H 0.0 **** 0.06
2928 H 7.532581104033568 53.62375010298331 51.37549994658377 H 0.0 **** 0.06
2929 H 8.411382430256879 55.16712807105779 51.49521069647881 H 0.0 **** 0.06
2930 H 9.207234198691253 53.74183396791152 50.784893368361566 H 0.0 **** 0.06
2931 C 56.21140247085305 81.20671848510419 80.2594434149604 C 0.0 **** -0.24
2932 H 56.704424690360284 80.52243109999853 79.56914223737414 H 0.0 **** 0.06
2933 H 55.16026472885978 80.93483569981872 80.35221209384702 H 0.0 **** 0.06
2934 H 56.29112309343735 82.22560268840694 79.87886027497689 H 0.0 **** 0.06
2935 H 56.69081027010185 81.14537262324004 81.2357976791302 H 0.0 **** 0.06
2936 C 26.284702772251677 29.784960261933655 59.3031404944783 C 0.0 **** -0.24
2937 H 26.169488624803748 28.789974522973388 58.87216835189649 H 0.0 **** 0.06
2938 H 27.05528320177708 29.759416776373804 60.07452967248656 H 0.0 **** 0.06
2939 H 25.33934605186235 30.101495711688223 59.7430107114627 H 0.0 **** 0.06
2940 H 26.575338387008976 30.486930097569783 58.521633522824054 H 0.0 **** 0.06
2941 C 96.46651557286947 86.63140016342504 14.433766027065303 C 0.0 **** -0.24
2942 H 95.56176240551886 86.64550015152741 13.825998997209325 H 0.0 **** 0.06
2943 H 96.39705935855544 87.39692246161954 15.206152766507103 H 0.0 **** 0.06
2944 H 97.33259456325565 86.82849373260663 13.801814936743085 H 0.0 **** 0.06
2945 H 96.57309680341092 85.65164317098174 14.901690856644905 H 0.0 **** 0.06
2946 C 42.897662863703545 48.998243125407384 61.112544653779025 C 0.0 **** -0.24
2947 H 43.290247305958886 48.96596571367914 60.09681268768418 H 0.0 **** 0.06
2948 H 41.80803190035567 48.97143851502534 61.08206873633503 H 0.0 **** 0.06
2949 H 43.22539965536106 49.9176345101651 61.598422182971944 H 0.0 **** 0.06
2950 H 43.26724112083659 48.13964485271521 61.67286042457414 H 0.0 **** 0.06
2951 C 55.34987455989952 100.26093417038459 84.48641385730514 C 0.0 **** -0.24
2952 H 55.00240461273631 99.77065506248124 83.57657819329489 H 0.0 **** 0.06
2953 H 54.60928456825434 100.12789883430861 85.27556274557361 H 0.0 **** 0.06
2954 H 55.49031640431687 101.32480284125228 84.29463165366394 H 0.0 **** 0.06
2955 H 56.296789979283545 99.81911028656378 84.7979371265069 H 0.0 **** 0.06
2956 C 28.421657420843985 81.87547861782429 74.47825880986649 C 0.0 **** -0.24
2957 H 29.00100169487115 81.01934245292483 74.8250209470916 H 0.0 **** 0.06
2958 H 29.065924925460166 82.7530297227296 74.42842626853144 H 0.0 **** 0.06
2959 H 27.60268367362761 82.06395891587565 75.17203400069542 H 0.0 **** 0.06
2960 H 28.01726746934807 81.66291607582991 73.48846195619922 H 0.0 **** 0.06
2961 C 58.105338015520886 20.04358260306884 84.22082193296649 C 0.0 **** -0.24
2962 H 58.719941577487944 20.855071341631174 84.61143476963937 H 0.0 **** 0.06
2963 H 58.50623419196468 19.088861089265805 84.56051874700816 H 0.0 **** 0.06
2964 H 58.11360437864392 20.074827039006124 83.13048235095312 H 0.0 **** 0.06
2965 H 57.08280116982485 20.157241741536467 84.5800166349743 H 0.0 **** 0.06
2966 C 62.86978389328698 43.4328844936563 92.75516010934393 C 0.0 **** -0.24
2967 H 62.2645355817898 43.26222121016161 93.64492487622653 H 0.0 **** 0.06
2968 H 63.474469868825395 44.32966708446753 92.89275645209858 H 0.0 **** 0.06
2969 H 62.21758584972167 43.56222456072814 91.89186254404609 H 0.0 **** 0.06
2970 H 63.52395167876557 42.57569917955132 92.59129803039906 H 0.0 **** 0.06
2971 C 87.2778045195247 29.236389889411704 38.950212533539855 C 0.0 **** -0.24
2972 H 86.56334479106789 29.04673782379487 38.14915869389006 H 0.0 **** 0.06
2973 H 86.78977414292314 29.08522985627721 39.91371132501774 H 0.0 **** 0.06
2974 H 87.63711365079496 30.2632475336556 38.881764041682914 H 0.0 **** 0.06
2975 H 88.11896301625143 28.549664581083583 38.85741932179866 H 0.0 **** 0.06
2976 C 81.87718607256323 66.63440848615335 99.26861635025244 C 0.0 **** -0.24
2977 H 82.54155567470298 66.29296236519417 98.47532422180583 H 0.0 **** 0.06
2978 H 81.02273131181505 65.96135258502574 99.34213300762141 H 0.0 **** 0.06
2979 H 81.52753771108354 67.64188206468384 99.04139858252148 H 0.0 **** 0.06
2980 H 82.41746711785527 66.64269567374038 100.21526917944087 H 0.0 **** 0.06
2981 C 23.175040265657202 32.7779353575371 56.10485942992261 C 0.0 **** -0.24
2982 H 24.070714492815057 33.07249085193703 55.55704864883617 H 0.0 **** 0.06
2983 H 22.665389306664395 31.979159340606202 55.565073648065265 H 0.0 **** 0.06
2984 H 22.5092896100966 33.63606614574911 56.19871300762813 H 0.0 **** 0.06
2985 H 23.45648912816415 32.42473943304938 57.09736690399859 H 0.0 **** 0.06
2986 C 63.32864691725513 28.325116097304097 11.831587418622348 C 0.0 **** -0.24
2987 H 63.619929624098404 28.335358329670555 12.881248924626732 H 0.0 **** 0.06
2988 H 63.478037792777684 27.32556919643808 11.422340229420854 H 0.0 **** 0.06
2989 H 63.93995669628458 29.039581548761845 11.278748002725706 H 0.0 **** 0.06
2990 H 62.278373412022404 28.601897157904517 11.742493938967755 H 0.0 **** 0.06
2991 C 28.695642938589984 40.51479336426277 61.809471040203235 C 0.0 **** -0.24
2992 H 28.81687920808008 39.6804932981816 62.50119503590655 H 0.0 **** 0.06
2993 H 29.668282534863096 40.79455489201476 61.40512520902308 H 0.0 **** 0.06
2994 H 28.263407913701457 41.36407866129926 62.33812518549145 H 0.0 **** 0.06
2995 H 28.03494388631057 40.217846575387966 60.99524796985075 H 0.0 **** 0.06
2996 C 79.15511057452481 44.201823608036094 24.0392113449645 C 0.0 **** -0.24
2997 H 80.17045500745083 44.13179663841129 24.43012283879277 H 0.0 **** 0.06
2998 H 79.1898400212244 44.507636107132505 22.99292385542404 H 0.0 **** 0.06
2999 H 78.59481078835287 44.93774830585944 24.615255453250327 H 0.0 **** 0.06
3000 H 78.66838364931034 43.22933910005078 24.118203010991436 H 0.0 **** 0.06
3001 C 78.56849280880117 85.81736914045733 72.13877626183466 C 0.0 **** -0.24
3002 H 78.0252616191885 85.05790167820923 71.57769619415016 H 0.0 **** 0.06
3003 H 77.90439832668436 86.65506779621695 72.35376088387069 H 0.0 **** 0.06
3004 H 79.41634876220382 86.16725615159955 71.55019898968308 H 0.0 **** 0.06
3005 H 78.92874290848555 85.38939486710589 73.07461961527805 H 0.0 **** 0.06
3006 C 28.471712965446606 98.77134000996871 19.519175212365724 C 0.0 **** -0.24
3007 H 28.378804944728167 99.21458442221797 20.511279751600796 H 0.0 **** 0.06
3008 H 29.3941562941992 98.19358968483076 19.465242793844197 H 0.0 **** 0.06
3009 H 28.493364681264048 99.5619376340428 18.769423626525878 H 0.0 **** 0.06
3010 H 27.619939698967073 98.11690986413451 19.332967349301015 H 0.0 **** 0.06
3011 C 44.64277174843066 46.45739605588528 42.31344301759367 C 0.0 **** -0.24
3012 H 45.092439020563525 47.44117239137887 42.45071416150705 H 0.0 **** 0.06
3013 H 43.564902008461196 46.56504605600554 42.1897288554606 H 0.0 **** 0.06
3014 H 44.849252112653815 45.839171672404575 43.187279014885746 H 0.0 **** 0.06
3015 H 45.06604629883354 45.98533196941611 41.42659351702275 H 0.0 **** 0.06
3016 C 90.76014951367932 53.82219087004983 10.789895676978277 C 0.0 **** -0.24
3017 H 90.11893459442592 52.95481494100802 10.631878885373101 H 0.0 **** 0.06
3018 H 91.1086380504853 54.19744025312042 9.827955721521867 H 0.0 **** 0.06
3019 H 91.61556373135235 53.53422248801783 11.400869148432928 H 0.0 **** 0.06
3020 H 90.19496983178198 54.601397563640525 11.301525163733817 H 0.0 **** 0.06
3021 C 11.767018715004781 44.80562003772832 65.09212546946081 C 0.0 **** -0.24
3022 H 12.141124394688532 45.19747804453095 66.03832901059884 H 0.0 **** 0.06
3023 H 12.168162064767614 43.80425188384703 64.9302094903832 H 0.0 **** 0.06
3024 H 12.080322766943311 45.45945238298805 64.27834927908178 H 0.0 **** 0.06
3025 H 10.678324801909014 44.76038714564771 65.12338920375849 H 0.0 **** 0.06
3026 C 33.05291118910705 23.05679713891371 63.13814295756569 C 0.0 **** -0.24
3027 H 32.83002999934007 21.99335782676627 63.22537066067024 H 0.0 **** 0.06
3028 H 32.94186385698006 23.36655114321961 62.09868692571476 H 0.0 **** 0.06
3029 H 34.0750435550861 23.24155000592117 63.466833708248075 H 0.0 **** 0.06
3030 H 32.36167964950232 23.623833021125918 63.76216712512799 H 0.0 **** 0.06
3031 C 24.15751877714831 40.83635424405901 23.539453574945156 C 0.0 **** -0.24
3032 H 23.73476145491064 40.73758978085157 22.539528226807562 H 0.0 **** 0.06
3033 H 25.10060962957226 41.37885024074106 23.48283606184097 H 0.0 **** 0.06
3034 H 24.332869615804057 39.84464685950049 23.958478031114822 H 0.0 **** 0.06
3035 H 23.461252535905942 41.381651123742095 24.175753381371095 H 0.0 **** 0.06
3036 C 28.804908693445313 73.31207554602813 35.13792070307406 C 0.0 **** -0.24
3037 H 29.53806111101271 73.60576970322246 34.38651658306213 H 0.0 **** 0.06
3038 H 29.32232840129504 72.95780892090026 36.03037795533973 H 0.0 **** 0.06
3039 H 28.1770294959004 72.51470430459291 34.74042645581545 H 0.0 **** 0.06
3040 H 28.184186001749666 74.1705140305589 35.39342714451064 H 0.0 **** 0.06
3041 C 18.665263832882058 64.94038364540796 36.97922095656614 C 0.0 **** -0.24
3042 H 17.777663403767953 64.64119451952695 37.53619149607783 H 0.0 **** 0.06
3043 H 19.4922025805645 65.1004759156047 37.670917151398136 H 0.0 **** 0.06
3044 H 18.46013858029326 65.86355221094897 36.43669692875842 H 0.0 **** 0.06
3045 H 18.930524937678026 64.1547470363268 36.27126858394967 H 0.0 **** 0.06
3046 C 85.53992410652607 13.83534279173574 51.0754649036578 C 0.0 **** -0.24
3047 H 84.45457046218101 13.748182661658177 51.027596012078675 H 0.0 **** 0.06
3048 H 85.83150101474331 14.205486715819092 52.05820659435906 H 0.0 **** 0.06
3049 H 85.8824374203524 14.530007582759623 50.30812837390016 H 0.0 **** 0.06
3050 H 85.99090382578784 12.85683005642474 50.905885840958405 H 0.0 **** 0.06
3051 C 14.874932463366786 80.46520233188197 102.3841316989483 C 0.0 **** -0.24
3052 H 14.535276930227631 81.32990792404412 101.8135142702572 H 0.0 **** 0.06
3053 H 14.3982744633436 79.56500887467266 101.99730653369028 H 0.0 **** 0.06
3054 H 14.609248294810385 80.59598314233835 103.43374316449956 H 0.0 **** 0.06
3055 H 15.957174457089913 80.37306229228406 102.29196147644996 H 0.0 **** 0.06
3056 C 35.74249983437835 15.369170284841946 51.83140211616697 C 0.0 **** -0.24
3057 H 35.940045192799886 14.30650978460065 51.68972513185554 H 0.0 **** 0.06
3058 H 35.55870080172343 15.566994320735937 52.887714787676 H 0.0 **** 0.06
3059 H 34.86605504323708 15.655536125086485 51.2503995531404 H 0.0 **** 0.06
3060 H 36.60441202289468 15.946467109009813 51.497705262034756 H 0.0 **** 0.06
3061 C 18.723379452440188 102.98125215499894 83.9066866371304 C 0.0 **** -0.24
3062 H 19.28366468975015 102.3189637152064 84.5660919009515 H 0.0 **** 0.06
3063 H 17.67763347011694 102.67450534460242 83.88753996009245 H 0.0 **** 0.06
3064 H 19.1372410911061 102.92563343119956 82.89921999875929 H 0.0 **** 0.06
3065 H 18.795503479343992 104.00472639515613 84.27331781300433 H 0.0 **** 0.06
3066 C 92.69098940071348 46.69350412606524 13.936918283911837 C 0.0 **** -0.24
3067 H 91.9548498811198 45.90697666745915 13.768436629025882 H 0.0 **** 0.06
3068 H 92.20415064420129 47.66634814720581 13.868746455817373 H 0.0 **** 0.06
3069 H 93.47437950950356 46.624564388082014 13.182682859969589 H 0.0 **** 0.06
3070 H 93.12888229109757 46.57467072834385 14.92773879158008 H 0.0 **** 0.06
3071 C 100.7009630083641 50.65919902371706 89.37044196551443 C 0.0 **** -0.24
3072 H 100.24841674832103 50.78640635306121 88.3870112145838 H 0.0 **** 0.06
3073 H 101.72169161236303 51.04184868532613 89.35218700852121 H 0.0 **** 0.06
3074 H 100.71299447430692 49.6011983363076 89.63036811182528 H 0.0 **** 0.06
3075 H 100.119958977543 51.20874683376667 90.11065095831495 H 0.0 **** 0.06
3076 C 92.34522282413714 77.2389602376619 11.531465911225325 C 0.0 **** -0.24
3077 H 92.25967100304497 77.63841646266485 10.520507695425593 H 0.0 **** 0.06
3078 H 92.70849107340867 78.01879471605758 12.201210830222081 H 0.0 **** 0.06
3079 H 93.04441062857182 76.40288811259433 11.534048247875248 H 0.0 **** 0.06
3080 H 91.36747420150907 76.89572283157884 11.869561427107897 H 0.0 **** 0.06
3081 C 25.073496304392236 8.070313762490741 16.279124750944135 C 0.0 **** -0.24
3082 H 25.89620727789193 7.355489900493637 16.29023133326335 H 0.0 **** 0.06
3083 H 25.45671373558848 9.05971134195596 16.029746151035425 H 0.0 **** 0.06
3084 H 24.603656816596924 8.098639503869833 17.26218190289434 H 0.0 **** 0.06
3085 H 24.33926218140949 7.765874087347697 15.533906291574738 H 0.0 **** 0.06
3086 C 77.63247531859263 6.5675902180175285 80.4648228304394 C 0.0 **** -0.24
3087 H 78.1114948339017 6.594114577970942 79.48542929939379 H 0.0 **** 0.06
3088 H 76.55025587751801 6.595487558821972 80.3406187707159 H 0.0 **** 0.06
3089 H 77.95468693146562 7.429323902118782 81.04959510277752 H 0.0 **** 0.06
3090 H 77.9162019562316 5.651438737447734 80.98242258440516 H 0.0 **** 0.06
3091 C 55.270605364462426 102.9431021718399 86.7608066299332 C 0.0 **** -0.24
3092 H 54.45667580310044 103.54273198566854 86.35325587181438 H 0.0 **** 0.06
3093 H 55.6537924848015 103.41901655207138 87.66474972141305 H 0.0 **** 0.06
3094 H 56.06970630954163 102.86595998028062 86.02338433896806 H 0.0 **** 0.06
3095 H 54.901498872637376 101.94644866698634 87.00338046821712 H 0.0 **** 0.06
3096 C 4.584298266718008 58.18831694951996 14.631153549337167 C 0.0 **** -0.24
3097 H 4.416464570785962 57.5603683586325 15.50642282498496 H 0.0 **** 0.06
3098 H 4.419308713624929 57.60206574246291 13.726986059767523 H 0.0 **** 0.06
3099 H 5.609761188866585 58.55989865677893 14.641913462214543 H 0.0 **** 0.06
3100 H 3.892645246312938 59.02966883500673 14.650848606155005 H 0.0 **** 0.06
3101 C 30.432400363445026 80.54726322023828 68.0541717103403 C 0.0 **** -0.24
3102 H 30.008534924800017 81.19305057790336 67.28539240311196 H 0.0 **** 0.06
3103 H 31.47863212230851 80.34642510091419 67.82174524383446 H 0.0 **** 0.06
3104 H 29.8803916593331 79.60854202802932 68.08594778101543 H 0.0 **** 0.06
3105 H 30.363739593939613 81.0425190872237 69.0226427629151 H 0.0 **** 0.06
3106 C 79.3833924568988 85.31678511722095 95.47530860324696 C 0.0 **** -0.24
3107 H 78.9935393345231 84.89403534831939 94.54952729920419 H 0.0 **** 0.06
3108 H 79.56522293149632 84.51465784201827 96.19208645039498 H 0.0 **** 0.06
3109 H 78.65721659582229 86.01669583325912 95.88828130739546 H 0.0 **** 0.06
3110 H 80.31742167582232 85.840049921576 95.27106311946423 H 0.0 **** 0.06
3111 C 104.11985851177927 105.54847004711178 61.557366237607866 C 0.0 **** -0.24
3112 H 103.19408470983578 105.2407733597538 62.04167955555741 H 0.0 **** 0.06
3113 H 104.81227993545363 104.7059214647731 61.5297180780141 H 0.0 **** 0.06
3114 H 104.56822398248534 106.36952718904865 62.11667959566324 H 0.0 **** 0.06
3115 H 103.90620991012104 105.87624110452322 60.53992814118119 H 0.0 **** 0.06
3116 C 94.79216818520449 36.36869305164984 101.72184864099644 C 0.0 **** -0.24
3117 H 95.78818057609882 36.15495879591154 101.33236576112893 H 0.0 **** 0.06
3118 H 94.68484483635436 35.9224346075641 102.71000496183801 H 0.0 **** 0.06
3119 H 94.04253248368994 35.95015697209803 101.04959736706822 H 0.0 **** 0.06
3120 H 94.65474200463689 37.447987808542905 101.79246569306443 H 0.0 **** 0.06
3121 C 102.85509980993409 21.25869759719808 18.37297807080465 C 0.0 **** -0.24
3122 H 103.32096207609155 22.24070173741785 18.455471003725435 H 0.0 **** 0.06
3123 H 102.23860460264923 21.22337928614155 17.474415791041437 H 0.0 **** 0.06
3124 H 102.23145487704137 21.078739225109814 19.249137239246977 H 0.0 **** 0.06
3125 H 103.62819459945852 20.492908074084937 18.31481720960815 H 0.0 **** 0.06
3126 C 75.05242289737299 49.38406715033281 72.56516488868579 C 0.0 **** -0.24
3127 H 75.9005670076508 49.990658395777395 72.88266684584153 H 0.0 **** 0.06
3128 H 74.23404783074034 49.50360957136551 73.2755132180292 H 0.0 **** 0.06
3129 H 75.349886480804 48.33588880395756 72.52641618719491 H 0.0 **** 0.06
3130 H 74.72562836424567 49.70585888945923 71.57692594161108 H 0.0 **** 0.06
3131 C 17.355798872642804 28.17093435274299 64.41576975683216 C 0.0 **** -0.24
3132 H 16.635324205948244 27.569650177834603 63.860920698184245 H 0.0 **** 0.06
3133 H 16.84243796603708 29.012229568066175 64.8836008231895 H 0.0 **** 0.06
3134 H 18.119047568980772 28.544474038164907 63.733526130068896 H 0.0 **** 0.06
3135 H 17.823960023199692 27.557529472819823 65.1853393980521 H 0.0 **** 0.06
3136 C 6.6719312121771 24.250731610362436 27.0210596589705 C 0.0 **** -0.24
3137 H 5.722615613627028 23.775965436170537 26.775701200420244 H 0.0 **** 0.06
3138 H 6.7873673026587085 25.158981228396726 26.427997186704772 H 0.0 **** 0.06
3139 H 7.4894936884420815 23.56531384699116 26.797761766740532 H 0.0 **** 0.06
3140 H 6.688556078683689 24.504556314559238 28.0812513995428 H 0.0 **** 0.06
3141 C 6.3833922486051335 78.1184681023999 16.369032305734095 C 0.0 **** -0.24
3142 H 5.616116250461658 78.73856608999597 15.905486307909996 H 0.0 **** 0.06
3143 H 7.355861174666529 78.59667898561338 16.25276368437494 H 0.0 **** 0.06
3144 H 6.399918476109804 77.14019239333481 15.887111715176388 H 0.0 **** 0.06
3145 H 6.160611379153863 77.99778549909826 17.42890976502997 H 0.0 **** 0.06
3146 C 71.61929958409547 53.37696661490066 81.47143148246997 C 0.0 **** -0.24
3147 H 72.66267937234687 53.063680703929165 81.42626008859483 H 0.0 **** 0.06
3148 H 71.10684851883119 52.82228261541877 82.25764229700323 H 0.0 **** 0.06
3149 H 71.13898703706542 53.180218112108484 80.51376260977833 H 0.0 **** 0.06
3150 H 71.5701386511949 54.4447206047045 81.68935251752822 H 0.0 **** 0.06
3151 C 74.42209473047706 85.22223214482344 46.553271267661515 C 0.0 **** -0.24
3152 H 74.37345780168602 84.13762105694747 46.46277793783577 H 0.0 **** 0.06
3153 H 74.12981033993412 85.67909619402678 45.60717508020569 H 0.0 **** 0.06
3154 H 75.4401062565081 85.52172674356649 46.80222382845937 H 0.0 **** 0.06
3155 H 73.74361265159621 85.55064252627346 47.34071368522167 H 0.0 **** 0.06
3156 C 4.915505711211878 46.81441786306209 61.70198991442601 C 0.0 **** -0.24
3157 H 5.210447080677838 46.60385530623057 60.67325625756962 H 0.0 **** 0.06
3158 H 5.310659573495315 47.785565830876806 62.00195819642914 H 0.0 **** 0.06
3159 H 5.31438305443686 46.04106513361609 62.35892394142584 H 0.0 **** 0.06
3160 H 3.828495819939775 46.82602250379932 61.77187280157682 H 0.0 **** 0.06
3161 C 54.113087484107666 4.177088463727552 33.96390775505879 C 0.0 **** -0.24
3162 H 53.15978050028798 3.7725274890433216 33.62304252807936 H 0.0 **** 0.06
3163 H 54.56640548187721 4.76112985545188 33.163535801457385 H 0.0 **** 0.06
3164 H 54.778514029852886 3.357155472866669 34.23648678843304 H 0.0 **** 0.06
3165 H 53.947166814825835 4.814589805643804 34.832326567162816 H 0.0 **** 0.06
3166 C 14.764798135195349 60.629392651308194 44.46355943314842 C 0.0 **** -0.24
3167 H 13.679527108914641 60.56455989243693 44.3853585528519 H 0.0 **** 0.06
3168 H 15.221530315017361 60.140649671992264 43.60248224711347 H 0.0 **** 0.06
3169 H 15.092346697104375 60.134504396427076 45.37819840619753 H 0.0 **** 0.06
3170 H 15.065684721148756 61.676344551455145 44.4898426278051 H 0.0 **** 0.06
3171 C 24.93721618654414 52.531741319761124 3.0471066163021305 C 0.0 **** -0.24
3172 H 25.939459557017447 52.59112138748662 2.6221464742659037 H 0.0 **** 0.06
3173 H 24.972784706260697 51.98254553374085 3.9875446487286297 H 0.0 **** 0.06
3174 H 24.277741497532993 52.0160951866082 2.348387711442925 H 0.0 **** 0.06
3175 H 24.5598339463394 53.53807282445655 3.227831254579314 H 0.0 **** 0.06
3176 C 97.94502862718377 107.27179217534734 83.76986294454841 C 0.0 **** -0.24
3177 H 98.27546985023747 106.4527483011253 83.1315726025764 H 0.0 **** 0.06
3178 H 98.35058384200624 107.13817417002042 84.77223563424238 H 0.0 **** 0.06
3179 H 96.85566660493686 107.28007250521168 83.81539009064664 H 0.0 **** 0.06
3180 H 98.29807195900116 108.21777651581968 83.35703975206684 H 0.0 **** 0.06
3181 C 7.217071416572651 100.9926744595009 83.37993134637514 C 0.0 **** -0.24
3182 H 6.248258468848917 101.48366293190594 83.47073138064758 H 0.0 **** 0.06
3183 H 7.3731034898953 100.33607777043943 84.23662365226744 H 0.0 **** 0.06
3184 H 8.004392244121334 101.74543288465566 83.35099185338723 H 0.0 **** 0.06
3185 H 7.241768124861494 100.40616759212924 82.4613195417653 H 0.0 **** 0.06
3186 C 66.24431206377555 77.03805821259209 26.778602576450453 C 0.0 **** -0.24
3187 H 66.80104294856191 77.87417471625452 27.202952464655823 H 0.0 **** 0.06
3188 H 65.31849682899787 76.89784421441823 27.336296968523186 H 0.0 **** 0.06
3189 H 66.84764027623115 76.13253390814066 26.84166332628064 H 0.0 **** 0.06
3190 H 66.0133751522372 77.24866020381853 25.73494806085347 H 0.0 **** 0.06
3191 C 103.37746806442387 22.77954766448383 62.089533021883426 C 0.0 **** -0.24
3192 H 103.34207736789477 22.01236842502186 61.315758249526255 H 0.0 **** 0.06
3193 H 103.21174544343532 22.31970295322884 63.06378284448061 H 0.0 **** 0.06
3194 H 102.60096819640177 23.52151432521771 61.90054268819057 H 0.0 **** 0.06
3195 H 104.35345600569293 23.264061251129334 62.07661191560021 H 0.0 **** 0.06
3196 C 14.80585433263252 98.67583716580502 82.78190788113818 C 0.0 **** -0.24
3197 H 14.088455647160941 99.16452792271782 83.44128587688147 H 0.0 **** 0.06
3198 H 14.35449898772876 98.5250758336638 81.80088072837347 H 0.0 **** 0.06
3199 H 15.088669328757305 97.71108058754379 83.20369492790795 H 0.0 **** 0.06
3200 H 15.692172622084627 99.30145399828896 82.6811443815688 H 0.0 **** 0.06
3201 C 103.02759944539048 12.14155894529668 34.330420656622195 C 0.0 **** -0.24
3202 H 103.3780637080881 11.721481949638246 33.38757019696817 H 0.0 **** 0.06
3203 H 103.33725015738054 11.496799199032125 35.153294401543434 H 0.0 **** 0.06
3204 H 101.93969816387427 12.2139931301312 34.31380738145306 H 0.0 **** 0.06
3205 H 103.45492914385693 13.135149207708935 34.46639342374428 H 0.0 **** 0.06
3206 C 72.48203642297415 81.78440585743124 26.596404094944525 C 0.0 **** -0.24
3207 H 72.58948253011619 82.01346405324915 25.535871883294003 H 0.0 **** 0.06
3208 H 71.42288697914341 81.6980294339196 26.842441726571558 H 0.0 **** 0.06
3209 H 72.92891821298377 82.58275295309727 27.187737652480124 H 0.0 **** 0.06
3210 H 72.98527630116615 80.84271469378291 26.816393314579106 H 0.0 **** 0.06
3211 C 34.404084309263794 3.4992427466793004 28.52817407952253 C 0.0 **** -0.24
3212 H 35.05969795885326 4.156074192429841 29.100547293078762 H 0.0 **** 0.06
3213 H 33.67189545275832 4.098829645850955 27.986860937281875 H 0.0 **** 0.06
3214 H 33.887700867985814 2.8214334562710377 29.208425949261567 H 0.0 **** 0.06
3215 H 34.99677348658395 2.9216023595174647 27.819095827409313 H 0.0 **** 0.06
3216 C 56.315502702493944 99.55499295926177 73.917062610669 C 0.0 **** -0.24
3217 H 56.93629156335397 99.33523746214195 74.78635406714727 H 0.0 **** 0.06
3218 H 56.85959250918655 99.29740951441084 73.00820072352644 H 0.0 **** 0.06
3219 H 56.068819546557194 100.61595342126282 73.90522584528946 H 0.0 **** 0.06
3220 H 55.397778799845796 98.96861162198587 73.96954750781737 H 0.0 **** 0.06
3221 C 33.79331557938008 12.351817530828956 8.923478806842475 C 0.0 **** -0.24
3222 H 32.89934517185674 12.672858438512549 9.458607328492716 H 0.0 **** 0.06
3223 H 33.55629528183232 11.485898253302732 8.305791168577073 H 0.0 **** 0.06
3224 H 34.57020481086772 12.086319269997372 9.641207663900312 H 0.0 **** 0.06
3225 H 34.14698609854247 13.165157105470957 8.289326777948157 H 0.0 **** 0.06
3226 C 25.108385341241643 97.091624982133 101.14747739399843 C 0.0 **** -0.24
3227 H 25.94346083657399 97.79215389806454 101.14523728432732 H 0.0 **** 0.06
3228 H 24.891382176332826 96.78839918790082 102.17204932471998 H 0.0 **** 0.06
3229 H 25.36881888831607 96.21466082900166 100.5553286992099 H 0.0 **** 0.06
3230 H 24.229472637274455 97.57321167869719 100.7169385934385 H 0.0 **** 0.06
3231 C 34.66721422165216 85.6437080298118 10.401529785712853 C 0.0 **** -0.24
3232 H 35.40516782348601 85.50143727305215 11.19134141023244 H 0.0 **** 0.06
3233 H 33.68105229601878 85.77583082615365 10.846668064575951 H 0.0 **** 0.06
3234 H 34.658560389738966 84.76935726452 9.750336466304006 H 0.0 **** 0.06
3235 H 34.925375510711206 86.52827553344018 9.81891673607835 H 0.0 **** 0.06
3236 C 65.96522303349442 19.12509415073769 8.871892663120576 C 0.0 **** -0.24
3237 H 65.64811038401541 18.379062580788943 9.600176466794537 H 0.0 **** 0.06
3238 H 66.36826315933061 19.992947360796343 9.393455030500775 H 0.0 **** 0.06
3239 H 65.10943363067175 19.429155786897955 8.267757771512663 H 0.0 **** 0.06
3240 H 66.73314941213636 18.69887846449372 8.225802759300777 H 0.0 **** 0.06
3241 C 88.63101232812375 61.516879013427754 78.69010539090209 C 0.0 **** -0.24
3242 H 88.72293715341857 62.0440473566599 77.74014893875164 H 0.0 **** 0.06
3243 H 88.05891056456588 60.60043698575748 78.54199227535372 H 0.0 **** 0.06
3244 H 88.11816006646313 62.15290234955191 79.41051961863656 H 0.0 **** 0.06
3245 H 89.62373897600361 61.26859172609649 79.06587806356666 H 0.0 **** 0.06
3246 C 40.839969193092486 65.05851640757925 95.48327901017299 C 0.0 **** -0.24
3247 H 40.404863394763254 64.15675754250009 95.91461157121523 H 0.0 **** 0.06
3248 H 41.79018078226369 65.27282240118575 95.97034229049208 H 0.0 **** 0.06
3249 H 40.15752311947722 65.89602646756845 95.63173834308066 H 0.0 **** 0.06
3250 H 41.003102582201336 64.9073828606692 94.4160437836882 H 0.0 **** 0.06
3251 C 20.88686969326743 59.05947285419421 32.480343163748614 C 0.0 **** -0.24
3252 H 20.337956914357733 59.39512729557492 31.60036604377467 H 0.0 **** 0.06
3253 H 21.94347293487748 58.95704098437702 32.23119218820062 H 0.0 **** 0.06
3254 H 20.49493859256739 58.09563206117304 32.80620177580755 H 0.0 **** 0.06
3255 H 20.770779291386155 59.78914796930745 33.281376297440545 H 0.0 **** 0.06
3256 C 59.63035176126061 93.95669130567774 66.6573525074792 C 0.0 **** -0.24
3257 H 59.89027340960632 94.48534322025941 67.57400986611786 H 0.0 **** 0.06
3258 H 60.32647259544609 94.23793539740511 65.86714594668175 H 0.0 **** 0.06
3259 H 58.615527107428534 94.22359378560249 66.35980599399525 H 0.0 **** 0.06
3260 H 59.68772768765575 92.88189188314261 66.82828538310073 H 0.0 **** 0.06
3261 C 107.6846410755704 26.073568568729428 19.682644271537185 C 0.0 **** -0.24
3262 H 107.59703124407739 26.87264879074405 18.94664755326798 H 0.0 **** 0.06
3263 H 107.10111095710397 25.212393275001745 19.35496814030492 H 0.0 **** 0.06
3264 H 107.3078581251444 26.42294125187479 20.643973665529046 H 0.0 **** 0.06
3265 H 108.7309848456798 25.786829957541528 19.78545245809366 H 0.0 **** 0.06
3266 C 70.168356505703 91.76286530676663 98.61592966331794 C 0.0 **** -0.24
3267 H 69.9762455142585 90.69089345405067 98.5718097012032 H 0.0 **** 0.06
3268 H 69.8414077601181 92.2282112943929 97.68574337985427 H 0.0 **** 0.06
3269 H 71.23670259546475 91.93429915537291 98.75208762416592 H 0.0 **** 0.06
3270 H 69.62088906580834 92.19659812444908 99.45219042563409 H 0.0 **** 0.06
3271 C 4.350398044982811 89.39708408293221 109.49932864594712 C 0.0 **** -0.24
3272 H 5.0536201568108385 88.61589160201042 109.21095939574764 H 0.0 **** 0.06
3273 H 3.8342636942129964 89.76691681199165 108.6135233999147 H 0.0 **** 0.06
3274 H 4.891795845547843 90.21586350331174 109.97390485365156 H 0.0 **** 0.06
3275 H 3.6221540037269584 88.98859588513633 110.20060028777812 H 0.0 **** 0.06
3276 C 74.9529028231017 97.41407608710108 87.4749078598434 C 0.0 **** -0.24
3277 H 74.9723877047205 97.21293269641325 86.40373768377194 H 0.0 **** 0.06
3278 H 74.3176355884045 98.27734273131341 87.6715854482797 H 0.0 **** 0.06
3279 H 75.965727239635 97.61947058835459 87.8239117964333 H 0.0 **** 0.06
3280 H 74.55752807284044 96.54433053977651 87.99988916144883 H 0.0 **** 0.06
3281 C 45.303645578277624 9.649184982192978 58.17904830536745 C 0.0 **** -0.24
3282 H 45.07160436835479 9.296518906967293 57.17429541938321 H 0.0 **** 0.06
3283 H 44.51700970852384 9.336331513145666 58.864788430859605 H 0.0 **** 0.06
3284 H 45.37308225743499 10.737241101184566 58.17553797198686 H 0.0 **** 0.06
3285 H 46.2564562155947 9.226647650107608 58.500451532156625 H 0.0 **** 0.06
3286 C 90.45047566003592 83.86170688404644 22.633445322354078 C 0.0 **** -0.24
3287 H 89.5317655237402 83.35470380170202 22.92760072139373 H 0.0 **** 0.06
3288 H 90.20479729318407 84.81011019125232 22.155393878444215 H 0.0 **** 0.06
3289 H 91.00268541320156 83.23412025183246 21.933923148037366 H 0.0 **** 0.06
3290 H 91.06232299472174 84.04665574073451 23.51569787396687 H 0.0 **** 0.06
3291 C 81.79176291812576 51.20421284718765 35.0705623248935 C 0.0 **** -0.24
3292 H 82.7325740585485 50.93170604237952 35.55121023859306 H 0.0 **** 0.06
3293 H 81.73044674209507 50.7202321190573 34.09519628806652 H 0.0 **** 0.06
3294 H 81.74934063228886 52.285861203330114 34.94364883024525 H 0.0 **** 0.06
3295 H 80.95818864858552 50.87789751372242 35.69153901208301 H 0.0 **** 0.06
3296 C 85.2766185935914 47.38828783624197 82.19711900621026 C 0.0 **** -0.24
3297 H 86.28009540069388 47.776601807114076 82.36757532574059 H 0.0 **** 0.06
3298 H 84.99094211107831 46.743496487070956 83.02786920782854 H 0.0 **** 0.06
3299 H 85.26076085179187 46.81516422792603 81.2699907873648 H 0.0 **** 0.06
3300 H 84.57391454660916 48.21814738011088 82.1224462546018 H 0.0 **** 0.06
3301 C 9.514546216354168 102.16238148713668 42.330308903528305 C 0.0 **** -0.24
3302 H 8.88794161523789 102.14311455078929 41.43911235987696 H 0.0 **** 0.06
3303 H 8.955928868285127 102.59958751363327 43.157604732297614 H 0.0 **** 0.06
3304 H 10.404931380559313 102.76068972355954 42.1352975939061 H 0.0 **** 0.06
3305 H 9.810258345583511 101.14485718340515 42.5876074381776 H 0.0 **** 0.06
3306 C 75.00180841612477 65.61692383878545 71.18958246855078 C 0.0 **** -0.24
3307 H 73.9935124735112 65.39067172104697 71.53763157223511 H 0.0 **** 0.06
3308 H 75.72745864131542 65.11070129921728 71.82547735713416 H 0.0 **** 0.06
3309 H 75.16736596939639 66.69299364038739 71.23263240117575 H 0.0 **** 0.06
3310 H 75.11688227408823 65.27323022994179 70.16162256071468 H 0.0 **** 0.06
3311 C 3.440059823026104 60.04463611206802 25.605426844173167 C 0.0 **** -0.24
3312 H 4.252682043356614 60.686689845823935 25.264667364229915 H 0.0 **** 0.06
3313 H 3.2798519286147894 59.24610057112925 24.88035351612822 H 0.0 **** 0.06
3314 H 2.528821850726075 60.63545114110131 25.703482280965527 H 0.0 **** 0.06
3315 H 3.6995033234515944 59.6132678011878 26.571523239920637 H 0.0 **** 0.06
3316 C 62.966171305998444 28.016189173172002 85.29515662923758 C 0.0 **** -0.24
3317 H 62.7533704890982 27.462572404862037 84.38116423173129 H 0.0 **** 0.06
3318 H 62.83511994201142 29.082344425893595 85.11282909156904 H 0.0 **** 0.06
3319 H 63.99284739580284 27.823315981975078 85.60600706213974 H 0.0 **** 0.06
3320 H 62.281694198563855 27.695118787662217 86.08116733206093 H 0.0 **** 0.06
3321 C 105.12842223577218 5.898578786138913 93.61031215538968 C 0.0 **** -0.24
3322 H 105.45315148615623 6.868460502024078 93.98660355213153 H 0.0 **** 0.06
3323 H 104.15907480639834 6.002948527646296 93.12260897168424 H 0.0 **** 0.06
3324 H 105.04436747943234 5.196701773066479 94.43996468247188 H 0.0 **** 0.06
3325 H 105.85872389954545 5.524922747775591 92.89123176766718 H 0.0 **** 0.06
3326 C 107.16823651977484 66.56252114311656 36.27353798999181 C 0.0 **** -0.24
3327 H 107.33518681857117 67.22302074907964 35.42238538564844 H 0.0 **** 0.06
3328 H 106.25226962434999 65.99152649340215 36.11631934817322 H 0.0 **** 0.06
3329 H 107.07323607638432 67.1574776275836 37.182220877704836 H 0.0 **** 0.06
3330 H 108.01131186775706 65.87823438845618 36.37293868468592 H 0.0 **** 0.06
3331 C 51.89030824559804 106.95267303510106 2.402982399102198 C 0.0 **** -0.24
3332 H 51.27698622417791 107.76744770166347 2.787033404939783 H 0.0 **** 0.06
3333 H 52.41844488477264 106.47472131795622 3.227880996486144 H 0.0 **** 0.06
3334 H 52.613013985730085 107.3477373366394 1.6887657001187941 H 0.0 **** 0.06
3335 H 51.25211881553763 106.2203425118963 1.9070850416740273 H 0.0 **** 0.06
3336 C 23.082950260907126 44.02168793044977 63.74042305753869 C 0.0 **** -0.24
3337 H 22.8280778257365 42.97136584967191 63.59871759745232 H 0.0 **** 0.06
3338 H 22.515802908254102 44.630457406920584 63.03701178681905 H 0.0 **** 0.06
3339 H 24.149949186361027 44.161878875870386 63.56595048394905 H 0.0 **** 0.06
3340 H 22.83849056626815 44.320100590735706 64.75982788388382 H 0.0 **** 0.06
3341 C 64.264411546193 22.029274712963854 59.08482088814358 C 0.0 **** -0.24
3342 H 65.05504956937085 21.621523925970394 58.454406175832304 H 0.0 **** 0.06
3343 H 63.79502370360973 21.22085463616901 59.646261841961916 H 0.0 **** 0.06
3344 H 63.517599613200844 22.51845375466729 58.458705314211045 H 0.0 **** 0.06
3345 H 64.68941834885231 22.754399568600945 59.777418842930615 H 0.0 **** 0.06
3346 C 48.46913877196752 82.62990424057847 87.16740801287472 C 0.0 **** -0.24
3347 H 49.21307905548778 83.2406972473101 86.65646712126352 H 0.0 **** 0.06
3348 H 48.68296695537492 82.6157607868887 88.2363600032512 H 0.0 **** 0.06
3349 H 48.504121673797044 81.61329424935565 86.77568848477324 H 0.0 **** 0.06
3350 H 47.47785696460619 83.05012862459375 87.0002384498768 H 0.0 **** 0.06
3351 C 9.85053933028334 20.131704238159102 85.07341837863424 C 0.0 **** -0.24
3352 H 9.369421377289697 21.0835077539366 84.84788688585733 H 0.0 **** 0.06
3353 H 10.723540329594186 20.006321946652065 84.43263337797738 H 0.0 **** 0.06
3354 H 9.147945916590473 19.318058359828115 84.8950039379701 H 0.0 **** 0.06
3355 H 10.1617750358201 20.120144064058337 86.1176518428222 H 0.0 **** 0.06
3356 C 23.316660315969784 49.90089683497004 6.011175038870988 C 0.0 **** -0.24
3357 H 23.373741733864847 48.81534099969821 6.086454960671574 H 0.0 **** 0.06
3358 H 23.68698633981694 50.349077955630605 6.933111140834171 H 0.0 **** 0.06
3359 H 22.281265851908785 50.20010939350172 5.851093912502051 H 0.0 **** 0.06
3360 H 23.925797057701033 50.239622617826825 5.172873685832428 H 0.0 **** 0.06
3361 C 91.89753979300545 67.78236737618613 22.275624042023537 C 0.0 **** -0.24
3362 H 91.87910139642196 68.7706131686561 21.815804340989033 H 0.0 **** 0.06
3363 H 91.81969378536581 67.02015901561293 21.500645814433696 H 0.0 **** 0.06
3364 H 91.05970273821919 67.68745273946104 22.96532040511788 H 0.0 **** 0.06
3365 H 92.83297345807586 67.65426979629314 22.82036961207156 H 0.0 **** 0.06
3366 C 18.714392527559795 61.80316759179891 104.61794093716713 C 0.0 **** -0.24
3367 H 18.97467223548921 62.381713383621786 105.50419603257745 H 0.0 **** 0.06
3368 H 18.60607631278708 60.75240800497829 104.88920983821441 H 0.0 **** 0.06
3369 H 19.5018920829458 61.90711086934817 103.87244711412461 H 0.0 **** 0.06
3370 H 17.773689323068737 62.171697630322456 104.20709178478234 H 0.0 **** 0.06
3371 C 26.76631549285878 42.04366100610304 96.85706619523255 C 0.0 **** -0.24
3372 H 26.393699557390136 42.926096211354604 96.33723322246864 H 0.0 **** 0.06
3373 H 27.805282891969938 41.86889543956863 96.57680983876638 H 0.0 **** 0.06
3374 H 26.165159622739623 41.177531060904926 96.58092241487822 H 0.0 **** 0.06
3375 H 26.702215663370566 42.201488472094695 97.9339309005633 H 0.0 **** 0.06
3376 C 81.83006098399298 87.95521564926528 44.10655107263466 C 0.0 **** -0.24
3377 H 81.77338885206709 87.93107438809426 43.01824948902811 H 0.0 **** 0.06
3378 H 82.50138039728533 87.1704578096971 44.45293259964268 H 0.0 **** 0.06
3379 H 80.83629734592564 87.79532705854902 44.52545721824799 H 0.0 **** 0.06
3380 H 82.20836440799732 88.92576004631508 44.42844544191968 H 0.0 **** 0.06
3381 C 7.505421316406114 85.35192402639186 82.87447667702001 C 0.0 **** -0.24
3382 H 8.006806090294731 85.75842124145207 83.75273243642322 H 0.0 **** 0.06
3383 H 7.691207286931871 84.27913797866931 82.8142888277007 H 0.0 **** 0.06
3384 H 7.891671991218175 85.8379431568171 81.97750188538946 H 0.0 **** 0.06
3385 H 6.433700379903186 85.53128002024982 82.95225495622927 H 0.0 **** 0.06
3386 C 107.46419315560655 82.96867159844703 56.409934817101686 C 0.0 **** -0.24
3387 H 107.89133903319674 82.03850639480166 56.78583905921959 H 0.0 **** 0.06
3388 H 107.73021376639798 83.78725744952345 57.07888931079883 H 0.0 **** 0.06
3389 H 106.3782792062795 82.8767210196429 56.36222800333762 H 0.0 **** 0.06
3390 H 107.85561030087203 83.17050592674968 55.41337908139073 H 0.0 **** 0.06
3391 C 108.95732238590136 104.16676628109514 18.31307559947915 C 0.0 **** -0.24
3392 H 108.83462065331645 103.08343949070616 18.329300693511158 H 0.0 **** 0.06
3393 H 108.27765895736593 104.59841266368815 17.57813893416484 H 0.0 **** 0.06
3394 H 109.98543984142145 104.4108842837756 18.046315884065095 H 0.0 **** 0.06
3395 H 108.73201406144148 104.57202941839029 19.3001332828958 H 0.0 **** 0.06
3396 C 66.97971028798389 97.81818231422669 58.27157795075999 C 0.0 **** -0.24
3397 H 67.06029591798568 96.80307783369116 58.658308649519995 H 0.0 **** 0.06
3398 H 65.94625584098605 98.15585242350008 58.34928680411298 H 0.0 **** 0.06
3399 H 67.2904333068326 97.83548049333312 57.226579443627884 H 0.0 **** 0.06
3400 H 67.62267876262189 98.47946670439016 58.852207218079286 H 0.0 **** 0.06
3401 C 104.99607441635274 105.91271689277346 42.78197163988227 C 0.0 **** -0.24
3402 H 104.51009905376465 105.1203463113676 42.21196399685988 H 0.0 **** 0.06
3403 H 104.41949094749566 106.8326064712964 42.68910889819526 H 0.0 **** 0.06
3404 H 106.00224026859892 106.07249660749716 42.39481718972138 H 0.0 **** 0.06
3405 H 105.05172323668506 105.62260177325209 43.83127917336651 H 0.0 **** 0.06
3406 C 100.56089027528584 28.93028487352126 69.35474835631518 C 0.0 **** -0.24
3407 H 99.56797333156919 28.55484183471063 69.6009561932748 H 0.0 **** 0.06
3408 H 101.31298101376451 28.223739580728363 69.7071886791243 H 0.0 **** 0.06
3409 H 100.7139043998254 29.89596420312199 69.83558713023243 H 0.0 **** 0.06
3410 H 100.6473722296595 29.044223384865262 68.27399178334329 H 0.0 **** 0.06
3411 C 98.65180691656809 6.443553812982401 80.26357444103297 C 0.0 **** -0.24
3412 H 98.32457083369148 7.468565617232073 80.08757659861294 H 0.0 **** 0.06
3413 H 99.17072966288886 6.071340998961313 79.37933536306647 H 0.0 **** 0.06
3414 H 97.78392614442454 5.814964968434211 80.4667959196093 H 0.0 **** 0.06
3415 H 99.32655991369276 6.418811434189507 81.118965021903 H 0.0 **** 0.06
3416 C 60.08710555189943 80.44766260231853 59.54842643610222 C 0.0 **** -0.24
3417 H 59.6914133476844 81.37645867395759 59.9577018112452 H 0.0 **** 0.06
3418 H 60.866742230750745 80.67394430190052 58.820503263845914 H 0.0 **** 0.06
3419 H 59.28453500273889 79.89422801545845 59.0606236605674 H 0.0 **** 0.06
3420 H 60.50625311290345 79.84447251044935 60.35429797709962 H 0.0 **** 0.06
3421 C 7.665377641109231 24.85254449433964 56.82386453186492 C 0.0 **** -0.24
3422 H 6.764656004042564 24.547989874807627 56.29099693617432 H 0.0 **** 0.06
3423 H 7.654415454134607 25.93365889164363 56.96608761691216 H 0.0 **** 0.06
3424 H 8.5432872841466 24.570524328676015 56.24400931855686 H 0.0 **** 0.06
3425 H 7.697143996657587 24.35858415946811 57.79564229028429 H 0.0 **** 0.06
3426 C 56.03526182100762 37.25720359612317 85.47431896129137 C 0.0 **** -0.24
3427 H 56.73860144149407 37.04976256997798 86.28017094110663 H 0.0 **** 0.06
3428 H 56.493272884849546 37.940912871474055 84.75883073097685 H 0.0 **** 0.06
3429 H 55.134615815653035 37.7112053370621 85.88551230912458 H 0.0 **** 0.06
3430 H 55.77500800923599 36.3255840515382 84.97103685111387 H 0.0 **** 0.06
3431 C 54.46557794960689 106.01074805642766 14.314513606406848 C 0.0 **** -0.24
3432 H 54.334137690766674 105.94271819577803 15.394293790629106 H 0.0 **** 0.06
3433 H 53.85082400676719 106.82241452122948 13.924743122747131 H 0.0 **** 0.06
3434 H 54.16271210088018 105.07115267060564 13.852122359361658 H 0.0 **** 0.06
3435 H 55.51369597661381 106.20643047353082 14.086704721570811 H 0.0 **** 0.06
3436 C 72.80903400235144 79.72257999942161 57.556386067969214 C 0.0 **** -0.24
3437 H 72.36607972326789 80.50424580403632 56.93792829332971 H 0.0 **** 0.06
3438 H 73.38223148177013 79.04248720557825 56.92599387006407 H 0.0 **** 0.06
3439 H 72.01902819410722 79.17000345853216 58.06397428971426 H 0.0 **** 0.06
3440 H 73.46836048598766 80.17577472456657 58.29664344968646 H 0.0 **** 0.06
3441 C 79.29543101698357 69.88980835264684 105.34114369626027 C 0.0 **** -0.24
3442 H 80.30056161019081 70.21355780359139 105.0728703359008 H 0.0 **** 0.06
3443 H 79.09354953934789 70.1542297949117 106.37891968892961 H 0.0 **** 0.06
3444 H 79.21811495241946 68.80878880375988 105.22004092538137 H 0.0 **** 0.06
3445 H 78.56974720506372 70.37984106871815 104.69265023791735 H 0.0 **** 0.06
3446 C 94.47715056229264 39.06651534091799 84.10967796787912 C 0.0 **** -0.24
3447 H 93.92281737754267 38.59082512254855 84.91907059727464 H 0.0 **** 0.06
3448 H 93.95412940913677 39.968554024780985 83.79221939631265 H 0.0 **** 0.06
3449 H 94.55650487934554 38.37677154961523 83.26937965171089 H 0.0 **** 0.06
3450 H 95.47537591036468 39.32885332715705 84.45895401554174 H 0.0 **** 0.06
3451 C 105.90232174625567 38.41079061033493 34.2504657110934 C 0.0 **** -0.24
3452 H 105.42237826190129 39.37521337103169 34.41763588992019 H 0.0 **** 0.06
3453 H 106.13430097269078 38.30002858738774 33.191154481062355 H 0.0 **** 0.06
3454 H 105.2270352225422 37.612302227238814 34.559907689637384 H 0.0 **** 0.06
3455 H 106.82089992578089 38.35602650393889 34.83319961086133 H 0.0 **** 0.06
3456 C 92.10749657114934 20.412642998339038 59.0066957416729 C 0.0 **** -0.24
3457 H 91.68537093672367 21.110860408436423 58.28388092228903 H 0.0 **** 0.06
3458 H 92.85308938993165 19.787315664994594 58.51464901099513 H 0.0 **** 0.06
3459 H 91.31397996495537 19.783312967403987 59.4096262195074 H 0.0 **** 0.06
3460 H 92.57768051990416 20.969282807876027 59.817233235973106 H 0.0 **** 0.06
3461 C 42.29381225286755 35.621941478214474 62.10321580436295 C 0.0 **** -0.24
3462 H 42.611128210942695 34.626538056927686 62.41493603778832 H 0.0 **** 0.06
3463 H 43.17146564867903 36.236072327166944 61.90016480527183 H 0.0 **** 0.06
3464 H 41.70524020804186 36.08062255352802 62.89727527603176 H 0.0 **** 0.06
3465 H 41.68767295137792 35.543574625922226 61.20060976960167 H 0.0 **** 0.06
3466 C 83.83528324247047 30.06944819435543 100.9907405038773 C 0.0 **** -0.24
3467 H 84.88322843219586 29.770655434945468 100.98398770277339 H 0.0 **** 0.06
3468 H 83.20827586911474 29.187824229233286 101.12757928425773 H 0.0 **** 0.06
3469 H 83.58752571388447 30.54863364984874 100.04345734570288 H 0.0 **** 0.06
3470 H 83.66178642459676 30.769762204908858 101.80769582513157 H 0.0 **** 0.06
3471 C 47.29398812023321 23.172159369833167 12.223552236624343 C 0.0 **** -0.24
3472 H 47.75266508647997 24.0732997856245 11.817741681861946 H 0.0 **** 0.06
3473 H 46.44843667473673 22.881633178220795 11.598821714676774 H 0.0 **** 0.06
3474 H 46.94723455054776 23.365801808209966 13.238574613970272 H 0.0 **** 0.06
3475 H 48.02796742068112 22.365757937473717 12.237940943890408 H 0.0 **** 0.06
3476 C 16.196988758330065 98.2288250033182 48.17725508784674 C 0.0 **** -0.24
3477 H 17.141317082293938 98.48061945085266 48.66100656233005 H 0.0 **** 0.06
3478 H 16.262649352440945 98.45872041710402 47.1134441620669 H 0.0 **** 0.06
3479 H 15.393022166317053 98.81229206971972 48.626407385019455 H 0.0 **** 0.06
3480 H 15.993605340386637 97.16675545710183 48.30887293295235 H 0.0 **** 0.06
3481 C 50.973615581389375 52.85486090689412 101.50310673913448 C 0.0 **** -0.24
3482 H 50.23784536371224 52.205744607801414 101.97754858553493 H 0.0 **** 0.06
3483 H 50.609328341798204 53.882425205841244 101.51026975548208 H 0.0 **** 0.06
3484 H 51.13425435042982 52.53188195570932 100.47443203074214 H 0.0 **** 0.06
3485 H 51.914277858210866 52.79826217268866 102.05195916585113 H 0.0 **** 0.06
3486 C 66.05667235701554 63.73076606060505 58.98459821503366 C 0.0 **** -0.24
3487 H 66.59563595172875 64.66613356969805 58.83729689201016 H 0.0 **** 0.06
3488 H 65.37679925905132 63.83267508227328 59.83021276328202 H 0.0 **** 0.06
3489 H 66.76808090853717 62.92947876530343 59.18420132548869 H 0.0 **** 0.06
3490 H 65.48701967277242 63.495392391446956 58.08573064586284 H 0.0 **** 0.06
3491 C 26.264010076237724 12.423621960077753 69.72003561392847 C 0.0 **** -0.24
3492 H 26.667174712861083 12.57096562884692 70.72128928603534 H 0.0 **** 0.06
3493 H 25.220295889259205 12.11613536170887 69.7909270182351 H 0.0 **** 0.06
3494 H 26.836788729334927 11.65095087004272 69.20780926428903 H 0.0 **** 0.06
3495 H 26.329936519439514 13.357367914126371 69.16097113256181 H 0.0 **** 0.06
3496 C 33.42553304275856 72.02768764334584 70.70906281460742 C 0.0 **** -0.24
3497 H 34.511559379792686 71.96267230266528 70.77958012697303 H 0.0 **** 0.06
3498 H 33.07542028994084 72.88419791967135 71.28604732012673 H 0.0 **** 0.06
3499 H 32.98055346302584 71.11473676883043 71.10593153558239 H 0.0 **** 0.06
3500 H 33.13529139528288 72.14946039156388 69.66534059909003 H 0.0 **** 0.06
3501 C 106.28937030301785 18.722488514939528 99.64489528551618 C 0.0 **** -0.24
3502 H 107.11378944925184 19.378576722580874 99.9231634496428 H 0.0 **** 0.06
3503 H 105.4664153701656 19.3202200467465 99.2516903650185 H 0.0 **** 0.06
3504 H 105.9512401150105 18.171690329222656 100.52316531562116 H 0.0 **** 0.06
3505 H 106.62535066436078 18.02050071120378 98.88224127201661 H 0.0 **** 0.06
3506 C 23.34962178742377 5.643785405349291 100.39670609305672 C 0.0 **** -0.24
3507 H 23.300632496279178 6.250436349959216 101.30115706555085 H 0.0 **** 0.06
3508 H 22.47187578509042 5.000607144813841 100.34292422150256 H 0.0 **** 0.06
3509 H 24.250200724187053 5.029170919715256 100.42061296620727 H 0.0 **** 0.06
3510 H 23.377286673511662 6.295100857700106 99.52377159155621 H 0.0 **** 0.06
3511 C 101.94715118555996 58.116956798520775 96.29353499990182 C 0.0 **** -0.24
3512 H 102.71079379440687 58.84526088093722 96.0191428886056 H 0.0 **** 0.06
3513 H 101.68688329409326 58.24199720848225 97.34392745719309 H 0.0 **** 0.06
3514 H 102.33182709015131 57.110103202798854 96.13038120513525 H 0.0 **** 0.06
3515 H 101.06148775509052 58.271544320683 95.67735090145692 H 0.0 **** 0.06
3516 C 101.91681450359037 12.823025445348833 64.33061650311981 C 0.0 **** -0.24
3517 H 101.50136925238567 12.064145574647739 64.99308115220333 H 0.0 **** 0.06
3518 H 102.49927881847884 13.534998024107267 64.91457385292986 H 0.0 **** 0.06
3519 H 101.1053897799283 13.346151567060303 63.8232607007119 H 0.0 **** 0.06
3520 H 102.56048931752828 12.346128743856696 63.591470284523325 H 0.0 **** 0.06
3521 C 23.094717612488353 24.59777310077395 72.45766302473965 C 0.0 **** -0.24
3522 H 23.64034722613303 23.720103876443645 72.10988728760853 H 0.0 **** 0.06
3523 H 23.199532064259643 25.402460989787983 71.72961823362624 H 0.0 **** 0.06
3524 H 23.499540112674765 24.920375683271573 73.41778294628375 H 0.0 **** 0.06
3525 H 22.040018788323778 24.346719264219118 72.57415452080403 H 0.0 **** 0.06
3526 C 18.360916310117403 44.60476051729982 61.60848643497491 C 0.0 **** -0.24
3527 H 19.084873599740547 44.24449822728374 62.34026362295896 H 0.0 **** 0.06
3528 H 18.766654189979818 45.47770180763923 61.096221671910314 H 0.0 **** 0.06
3529 H 17.436007414472584 44.87857216783391 62.1164318993072 H 0.0 **** 0.06
3530 H 18.157998739186993 43.81896175619358 60.88085697594255 H 0.0 **** 0.06
3531 C 63.83797840785428 23.101333981712987 29.036943341578443 C 0.0 **** -0.24
3532 H 63.507398016249795 24.12536220007375 28.86717406150826 H 0.0 **** 0.06
3533 H 63.08213232282833 22.567075848786377 29.614103538586484 H 0.0 **** 0.06
3534 H 64.77774008259922 23.109427949059942 29.58911210741946 H 0.0 **** 0.06
3535 H 63.98270968923106 22.602843925887942 28.0787511074861 H 0.0 **** 0.06
3536 C 24.595153017259225 20.75198908440109 67.11079859945477 C 0.0 **** -0.24
3537 H 23.830521283844952 20.020389837037015 66.84839099806936 H 0.0 **** 0.06
3538 H 24.909634066035128 20.593847849932985 68.14297685078941 H 0.0 **** 0.06
3539 H 24.18773975055529 21.756880235943385 67.00339734915099 H 0.0 **** 0.06
3540 H 25.451767064425713 20.633806055327128 66.4474789241878 H 0.0 **** 0.06
3541 C 44.97385213163898 50.63218849295836 26.5232781473552 C 0.0 **** -0.24
3542 H 44.10685926110955 51.17583584392486 26.14844116251186 H 0.0 **** 0.06
3543 H 45.88237520536191 51.17759352413947 26.269412038005612 H 0.0 **** 0.06
3544 H 45.004714481077315 49.64146144744825 26.06966233214314 H 0.0 **** 0.06
3545 H 44.899181610993935 50.53335871730417 27.606343180268027 H 0.0 **** 0.06
3546 C 10.186167558772468 38.8367055420766 68.89788966406064 C 0.0 **** -0.24
3547 H 11.112587083822632 38.29813766359436 68.6981614186171 H 0.0 **** 0.06
3548 H 9.382636078775477 38.41397912809515 68.29409545756243 H 0.0 **** 0.06
3549 H 10.317230576975021 39.88932260929707 68.64382522544878 H 0.0 **** 0.06
3550 H 9.9343903174626 38.746349755937274 69.95364902155592 H 0.0 **** 0.06
3551 C 17.045773210860375 94.73727912615666 83.94905853999173 C 0.0 **** -0.24
3552 H 16.175928991753324 94.74428503817268 84.6062882114871 H 0.0 **** 0.06
3553 H 16.715142091748476 94.77880669415998 82.91045348092136 H 0.0 **** 0.06
3554 H 17.6171937823392 93.8247150580222 84.11287892252723 H 0.0 **** 0.06
3555 H 17.671998856431003 95.60269840845876 84.16687449967992 H 0.0 **** 0.06
3556 C 23.0139983928315 27.010327590702026 57.4695442676925 C 0.0 **** -0.24
3557 H 22.28029019606382 27.65791157817283 57.9494516750234 H 0.0 **** 0.06
3558 H 23.73784284578367 26.66996985902565 58.21124823542064 H 0.0 **** 0.06
3559 H 23.529577014005696 27.563896894610004 56.68577229957401 H 0.0 **** 0.06
3560 H 22.507457203338955 26.148820099799853 57.03365693912002 H 0.0 **** 0.06
3561 C 90.1248590210219 103.60471956620688 55.09483189300072 C 0.0 **** -0.24
3562 H 90.74639378463681 103.25152840221324 54.27146657547928 H 0.0 **** 0.06
3563 H 89.47562070093895 104.40627467588467 54.742265752831145 H 0.0 **** 0.06
3564 H 90.76249058129315 103.97827784379012 55.895703943244314 H 0.0 **** 0.06
3565 H 89.51577064536514 102.78239074018563 55.46953109450315 H 0.0 **** 0.06
3566 C 75.98749015213679 26.937605993042183 6.500318589330345 C 0.0 **** -0.24
3567 H 76.0600499805176 26.844718285122013 5.416291443355098 H 0.0 **** 0.06
3568 H 76.51096680848147 27.838834723687313 6.8229700107652125 H 0.0 **** 0.06
3569 H 76.44114232197452 26.065072234975986 6.970555146686495 H 0.0 **** 0.06
3570 H 74.93877694109322 27.002591790330428 6.7893554102141245 H 0.0 **** 0.06
3571 C 94.99563299315763 82.7328482741421 1.0289968253308643 C 0.0 **** -0.24
3572 H 94.08229091036914 83.32199885583442 1.110038069201039 H 0.0 **** 0.06
3573 H 94.74088467201713 81.67640498137425 0.943511539979653 H 0.0 **** 0.06
3574 H 95.60860620466286 82.8888642512401 1.917158274674648 H 0.0 **** 0.06
3575 H 95.55189637637955 83.045509878341 0.1444027309158713 H 0.0 **** 0.06
3576 C 92.84227928917528 88.31969203036184 103.68917883991823 C 0.0 **** -0.24
3577 H 92.55149254947251 89.17992210052475 104.2914214151628 H 0.0 **** 0.06
3578 H 93.88007744760581 88.06197274122839 103.90098918875309 H 0.0 **** 0.06
3579 H 92.73609699706618 88.56324355312692 102.63211080326951 H 0.0 **** 0.06
3580 H 92.19959317475599 87.4728868996769 103.93219230804173 H 0.0 **** 0.06
3581 C 69.0051374384555 59.32845078025822 55.68687369950523 C 0.0 **** -0.24
3582 H 67.93447269498301 59.170032003651116 55.819494989245804 H 0.0 **** 0.06
3583 H 69.18860739259685 59.76088754279475 54.70240370405369 H 0.0 **** 0.06
3584 H 69.52603610862792 58.375153568690216 55.76908564564604 H 0.0 **** 0.06
3585 H 69.36859359363734 60.010145760043685 56.456195133589155 H 0.0 **** 0.06
3586 C 57.22851395010801 8.530404187414774 58.836040168162064 C 0.0 **** -0.24
3587 H 56.47104574167918 9.296492961972035 58.67170592365316 H 0.0 **** 0.06
3588 H 56.746297217998546 7.604203571346716 59.1497396092778 H 0.0 **** 0.06
3589 H 57.918395508008814 8.863074299186167 59.612117442496356 H 0.0 **** 0.06
3590 H 57.778355099193305 8.359564231316767 57.9103829443973 H 0.0 **** 0.06
3591 C 104.50737741619166 85.71891782536957 100.3704188301797 C 0.0 **** -0.24
3592 H 105.07547811205309 86.11767289769955 99.52912166183918 H 0.0 **** 0.06
3593 H 104.85233681041596 84.71013925076795 100.59554463494067 H 0.0 **** 0.06
3594 H 103.4483372546933 85.6926525126463 100.11224452275391 H 0.0 **** 0.06
3595 H 104.6534762096216 86.35671755838217 101.24217539366597 H 0.0 **** 0.06
3596 C 2.938245287419761 108.6235915087156 11.385452976704386 C 0.0 **** -0.24
3597 H 3.227122885957044 109.63437168384345 11.674247116339615 H 0.0 **** 0.06
3598 H 3.022160971784672 108.51658299292075 10.303990912489098 H 0.0 **** 0.06
3599 H 1.9083955945949924 108.43870731004891 11.691394670493565 H 0.0 **** 0.06
3600 H 3.5959479531804845 107.90419809560849 11.874003094472357 H 0.0 **** 0.06
3601 C 53.604680677452166 24.642313773609715 61.93388552925114 C 0.0 **** -0.24
3602 H 53.3915694828697 23.917795137261066 61.148122071792045 H 0.0 **** 0.06
3603 H 52.67648430924709 24.921627454573695 62.43312321583835 H 0.0 **** 0.06
3604 H 54.063338702492246 25.529091844404945 61.49579722722996 H 0.0 **** 0.06
3605 H 54.28898815321514 24.200850009095404 62.65898892060591 H 0.0 **** 0.06
3606 C 9.510635777103403 20.408531685160003 61.54690466603314 C 0.0 **** -0.24
3607 H 9.18344531337084 20.940747287042704 60.653380829704744 H 0.0 **** 0.06
3608 H 10.532721122109763 20.702262264646617 61.790765018597924 H 0.0 **** 0.06
3609 H 9.476263816874962 19.334625354165652 61.362211279609085 H 0.0 **** 0.06
3610 H 8.852905394741072 20.656272350163537 62.378991250268285 H 0.0 **** 0.06
3611 C 61.23644859006998 25.447870678364495 24.69454254442462 C 0.0 **** -0.24
3612 H 60.37402710024696 24.871158767245618 24.3625164388381 H 0.0 **** 0.06
3613 H 61.17739837179522 25.602591742751912 25.771537107850804 H 0.0 **** 0.06
3614 H 61.24433108176737 26.413343395385255 24.18837737649494 H 0.0 **** 0.06
3615 H 62.15053826624697 24.905003224417072 24.454567874276023 H 0.0 **** 0.06
3616 C 90.22514807624486 74.13187231295302 61.30927023199695 C 0.0 **** -0.24
3617 H 91.10408451809934 73.63520429098465 60.89743834188744 H 0.0 **** 0.06
3618 H 90.53903431224472 74.88622439159364 62.030431249355445 H 0.0 **** 0.06
3619 H 89.59231218857494 73.39570199850728 61.80505332670464 H 0.0 **** 0.06
3620 H 89.66667431863925 74.60779027717261 60.50381882490666 H 0.0 **** 0.06
3621 C 67.18229918765354 58.78049983830371 26.77370721824815 C 0.0 **** -0.24
3622 H 68.19297365803737 58.44290723286295 27.0071944822013 H 0.0 **** 0.06
3623 H 66.61923243104846 57.9575229082877 26.332902623873963 H 0.0 **** 0.06
3624 H 67.22945478561894 59.609260589432154 26.067698152240894 H 0.0 **** 0.06
3625 H 66.68941805468853 59.11024904208941 27.688522247100877 H 0.0 **** 0.06
3626 C 98.09681053681487 46.487936032780965 22.191518540719926 C 0.0 **** -0.24
3627 H 98.80041471389177 47.29062521981197 21.96983833279114 H 0.0 **** 0.06
3628 H 97.53563631686399 46.237286921560404 21.29092295085553 H 0.0 **** 0.06
3629 H 97.40675223245239 46.81490583747154 22.97045514431204 H 0.0 **** 0.06
3630 H 98.64408554013951 45.61045028323201 22.535600918317073 H 0.0 **** 0.06
3631 C 36.399220829253636 61.92547202756117 47.255834773374374 C 0.0 **** -0.24
3632 H 35.927292854504685 61.709714243812385 48.21485691740804 H 0.0 **** 0.06
3633 H 36.60217110102647 60.9908603305325 46.732844303608374 H 0.0 **** 0.06
3634 H 37.33620225358078 62.45844771645591 47.424214404396196 H 0.0 **** 0.06
3635 H 35.73285614590458 62.5432795565186 46.653691236245834 H 0.0 **** 0.06
3636 C 37.0299530955194 59.305215131955066 77.70846611617074 C 0.0 **** -0.24
3637 H 37.644387249986096 59.1465757967718 78.59428102792812 H 0.0 **** 0.06
3638 H 37.53423968292307 58.88696895500101 76.8373995107509 H 0.0 **** 0.06
3639 H 36.87448256929423 60.37356067893808 77.56091771232133 H 0.0 **** 0.06
3640 H 36.066945053163636 58.81250992756645 77.8428125328905 H 0.0 **** 0.06
3641 C 70.45915582552765 21.97784822123438 46.18957431594774 C 0.0 **** -0.24
3642 H 71.05351099083582 21.29852269144098 45.5787121260579 H 0.0 **** 0.06
3643 H 69.40469115167225 21.712374546099653 46.105604630033 H 0.0 **** 0.06
3644 H 70.60598699650686 23.000869266173765 45.84297596040128 H 0.0 **** 0.06
3645 H 70.77202429782973 21.898397856185056 47.23043636089606 H 0.0 **** 0.06
3646 C 58.06661540839201 90.70488500247481 57.93506383411487 C 0.0 **** -0.24
3647 H 58.77021453400249 90.27534556036433 57.22184576924929 H 0.0 **** 0.06
3648 H 57.80819912152367 91.71723441430385 57.623683715240865 H 0.0 **** 0.06
3649 H 58.52455954059462 90.73333226415076 58.92367233945946 H 0.0 **** 0.06
3650 H 57.165465424568595 90.09317007422469 57.969681531172725 H 0.0 **** 0.06
3651 C 23.582803258959785 28.51595064128395 25.113900526213428 C 0.0 **** -0.24
3652 H 23.448312007801462 29.52599580024031 24.72921539215608 H 0.0 **** 0.06
3653 H 22.70252586478037 28.225052462695146 25.689194311826185 H 0.0 **** 0.06
3654 H 24.463329746112095 28.485805662037222 25.75625890477278 H 0.0 **** 0.06
3655 H 23.716712632356547 27.824767307874254 24.280571154461256 H 0.0 **** 0.06
3656 C 94.8875330603629 8.671799326829913 61.64616855888242 C 0.0 **** -0.24
3657 H 95.39249439941021 9.60905450416277 61.414756401492866 H 0.0 **** 0.06
3658 H 95.15970854667907 7.920484734455414 60.905218679079155 H 0.0 **** 0.06
3659 H 93.80836375215931 8.82612980943 61.628096430391565 H 0.0 **** 0.06
3660 H 95.18999258553464 8.331987703803293 62.63738156672959 H 0.0 **** 0.06
3661 C 47.8532999560695 1.8293609287717914 13.043155414479113 C 0.0 **** -0.24
3662 H 48.14490780524234 1.4408028340625805 14.018230933289153 H 0.0 **** 0.06
3663 H 48.4616563833488 1.3624173093794667 12.268859634113184 H 0.0 **** 0.06
3664 H 48.00478760963518 2.9090174830018896 13.022512615450417 H 0.0 **** 0.06
3665 H 46.800694698390075 1.6069901819325025 12.86371639638664 H 0.0 **** 0.06
3666 C 98.03901527495404 96.2960423573376 53.0451845820088 C 0.0 **** -0.24
3667 H 97.60624458566778 97.25625354351854 53.32714185911351 H 0.0 **** 0.06
3668 H 98.32616815139824 96.32115649342654 51.99424817008082 H 0.0 **** 0.06
3669 H 97.30284123875542 95.50674393700699 53.202307881351715 H 0.0 **** 0.06
3670 H 98.9178883440115 96.10008142064011 53.659156313540336 H 0.0 **** 0.06
3671 C 35.10928246757828 62.012705426578776 84.01849755724248 C 0.0 **** -0.24
3672 H 34.40282638491718 62.278745126964864 83.2307801865648 H 0.0 **** 0.06
3673 H 35.3068350853454 62.88768494792281 84.63876905080377 H 0.0 **** 0.06
3674 H 36.04019710235113 61.66715608199071 83.56895617302496 H 0.0 **** 0.06
3675 H 34.68460457435111 61.21941877768886 84.63345432757029 H 0.0 **** 0.06
3676 C 44.19299730986694 54.14667215684231 16.687367162064135 C 0.0 **** -0.24
3677 H 44.49371379550962 53.23047247134788 17.19455997063679 H 0.0 **** 0.06
3678 H 45.078125826722726 54.667511770601344 16.321363750095287 H 0.0 **** 0.06
3679 H 43.656053339671075 54.78898910624146 17.386637538769293 H 0.0 **** 0.06
3680 H 43.54209759961407 53.90046132604403 15.848111132002373 H 0.0 **** 0.06
3681 C 67.56587961338892 21.154297308470035 51.55219539757973 C 0.0 **** -0.24
3682 H 68.11353935820847 20.353874899229226 52.048695735277256 H 0.0 **** 0.06
3683 H 66.78376607118543 20.72530974560499 50.92683479984835 H 0.0 **** 0.06
3684 H 68.25087107074535 21.733256498487037 50.93293712162394 H 0.0 **** 0.06
3685 H 67.11656237446539 21.805391775216094 52.301761842652056 H 0.0 **** 0.06
3686 C 94.93532249531069 41.934888036377856 96.29706882644278 C 0.0 **** -0.24
3687 H 94.52944722458307 42.79317711878386 96.83105094332149 H 0.0 **** 0.06
3688 H 96.0192328619039 42.028690492474595 96.23000704525198 H 0.0 **** 0.06
3689 H 94.51038692797977 41.896585046431426 95.29468993429764 H 0.0 **** 0.06
3690 H 94.6825869372679 41.02064394922198 96.83468614592505 H 0.0 **** 0.06
3691 C 48.72419601623168 61.84544529746262 4.519693222597226 C 0.0 **** -0.24
3692 H 48.152512774952505 62.610454672892075 5.045058608647821 H 0.0 **** 0.06
3693 H 49.50396785993659 62.32007858924288 3.924180026929207 H 0.0 **** 0.06
3694 H 48.060264283167356 61.280006405528695 3.866379868139944 H 0.0 **** 0.06
3695 H 49.17985384133139 61.171203063393136 5.244876110058016 H 0.0 **** 0.06
3696 C 32.10232069684523 32.05098866266195 58.58671121811985 C 0.0 **** -0.24
3697 H 32.75106740246731 31.952991236341774 57.71637848152103 H 0.0 **** 0.06
3698 H 32.46371685573661 32.861024857314106 59.2202536752398 H 0.0 **** 0.06
3699 H 32.10701656722357 31.118035873761528 59.15061628206545 H 0.0 **** 0.06
3700 H 31.08604720361236 32.270591506318794 58.258490752260876 H 0.0 **** 0.06
3701 C 26.307723638538064 36.26601074075582 106.45340641740103 C 0.0 **** -0.24
3702 H 26.29374120030323 36.43373628318713 105.37610305382563 H 0.0 **** 0.06
3703 H 26.79128702206377 37.108841511520964 106.94607217686902 H 0.0 **** 0.06
3704 H 26.859987482181566 35.35108285564702 106.67063103265559 H 0.0 **** 0.06
3705 H 25.28552166147675 36.16856936424996 106.81845591718195 H 0.0 **** 0.06
3706 C 77.39351971254321 3.684659380930583 25.378790010119218 C 0.0 **** -0.24
3707 H 78.46454867205256 3.887014290281229 25.376483589808572 H 0.0 **** 0.06
3708 H 77.16940735392596 2.9125405254521866 24.642012538174242 H 0.0 **** 0.06
3709 H 76.85097407024055 4.596519891340918 25.126439917140658 H 0.0 **** 0.06
3710 H 77.09034877703476 3.3429955855172295 26.368387448745352 H 0.0 **** 0.06
3711 C 21.687644111134976 9.32468470197458 63.942156338750905 C 0.0 **** -0.24
3712 H 21.916975677462457 9.805655597012828 64.89349956683047 H 0.0 **** 0.06
3713 H 21.23681910783038 10.05293151362039 63.26687985130336 H 0.0 **** 0.06
3714 H 20.99135752775785 8.503503693159976 64.10830248309406 H 0.0 **** 0.06
3715 H 22.606309688406736 8.938700905988393 63.49990307388701 H 0.0 **** 0.06
3716 C 34.63372727237635 8.129192102722186 10.694701740804419 C 0.0 **** -0.24
3717 H 35.58259272282979 8.615165025465103 10.469809569857617 H 0.0 **** 0.06
3718 H 34.056973571123706 8.01737870875536 9.776326643683404 H 0.0 **** 0.06
3719 H 34.073147886182994 8.737132172746612 11.404222314582498 H 0.0 **** 0.06
3720 H 34.82286017306049 7.146652452999945 11.127280583006083 H 0.0 **** 0.06
3721 C 26.205066769894785 38.82860462642526 80.78170157633438 C 0.0 **** -0.24
3722 H 26.870216858365183 38.06526782437592 81.18474639089321 H 0.0 **** 0.06
3723 H 25.36420249183712 38.97280119089061 81.45971518426052 H 0.0 **** 0.06
3724 H 25.83531894774174 38.5100322931828 79.80629440234742 H 0.0 **** 0.06
3725 H 26.750983935845113 39.76604955542638 80.6736583621643 H 0.0 **** 0.06
3726 C 91.81012613990072 66.83626245086435 11.807208277712704 C 0.0 **** -0.24
3727 H 92.09091251288163 66.63029250669078 10.774365959408769 H 0.0 **** 0.06
3728 H 91.60641648648101 65.89778644784812 12.322512086999893 H 0.0 **** 0.06
3729 H 90.91863473821417 67.46193171895851 11.82282332734782 H 0.0 **** 0.06
3730 H 92.6272833869642 67.35553835184007 12.308652663565368 H 0.0 **** 0.06
3731 C 28.82039330556205 86.18859945942843 55.01283589053783 C 0.0 **** -0.24
3732 H 28.854676633174535 85.73675552669854 54.020575003836136 H 0.0 **** 0.06
3733 H 28.312982844483543 85.51287540296558 55.701712884253155 H 0.0 **** 0.06
3734 H 28.276388681387402 87.13221445810483 54.96266015534815 H 0.0 **** 0.06
3735 H 29.835518385218847 86.37240738823017 55.363240697923516 H 0.0 **** 0.06
3736 C 27.479160103815566 20.338860140941545 63.249686916319945 C 0.0 **** -0.24
3737 H 26.867454723057136 19.564894834084843 62.785586583784664 H 0.0 **** 0.06
3738 H 28.082802463311026 20.830767459464425 62.486410428393015 H 0.0 **** 0.06
3739 H 28.132793606840586 19.887275090665103 63.99507673614107 H 0.0 **** 0.06
3740 H 26.831727827884457 21.073245866282743 63.7306827627732 H 0.0 **** 0.06
3741 C 77.7044928909566 17.272765089727898 73.3433859984912 C 0.0 **** -0.24
3742 H 77.05530201256815 16.450453263357588 73.0429474567453 H 0.0 **** 0.06
3743 H 77.9701776591989 17.863715901081093 72.46619692893175 H 0.0 **** 0.06
3744 H 78.60943245698019 16.873177898067695 73.7995737357174 H 0.0 **** 0.06
3745 H 77.1829965709511 17.904035656047142 74.06239843984405 H 0.0 **** 0.06
3746 C 16.68465488441791 70.57765870175376 36.134210427403985 C 0.0 **** -0.24
3747 H 16.08104105334135 71.08470801567563 36.88750203022033 H 0.0 **** 0.06
3748 H 16.856562941483475 71.25074319261023 35.29418973853589 H 0.0 **** 0.06
3749 H 16.1594794654238 69.6879260307528 35.7873482081458 H 0.0 **** 0.06
3750 H 17.640859187765926 70.2887468453934 36.57101491140031 H 0.0 **** 0.06
3751 C 31.692881516816144 5.68792947851145 71.46064509331723 C 0.0 **** -0.24
3752 H 31.41462683117087 6.435299792807768 70.71756514526248 H 0.0 **** 0.06
3753 H 32.695557141446336 5.900987547889201 71.83212826433697 H 0.0 **** 0.06
3754 H 31.67661600365362 4.6988037025426905 71.0036785042318 H 0.0 **** 0.06
3755 H 30.98468321536228 5.718626936054832 72.28820938565912 H 0.0 **** 0.06
3756 C 30.583073211804873 90.62930963527947 105.29378713834481 C 0.0 **** -0.24
3757 H 29.989723317339283 91.05675553559237 104.48464571880469 H 0.0 **** 0.06
3758 H 31.640869767960247 90.6886879249231 105.03694955580039 H 0.0 **** 0.06
3759 H 30.301111282062124 89.58690209186273 105.4383685800773 H 0.0 **** 0.06
3760 H 30.398832075552313 91.18686426124776 106.21171625956725 H 0.0 **** 0.06
3761 C 4.822932011596217 61.96683372298497 76.85292048220646 C 0.0 **** -0.24
3762 H 4.208435799531383 62.85938288121241 76.96587717590484 H 0.0 **** 0.06
3763 H 5.6330496544258875 61.98811249095763 77.58154690172415 H 0.0 **** 0.06
3764 H 5.240787787105985 61.939045430380304 75.84635441521738 H 0.0 **** 0.06
3765 H 4.210431960816537 61.079776279526186 77.01590105552094 H 0.0 **** 0.06
3766 C 67.38756802058671 102.61032830366884 82.89266958638915 C 0.0 **** -0.24
3767 H 68.3727838188321 102.24166864138567 82.60712493612476 H 0.0 **** 0.06
3768 H 67.43460781763311 103.03123541238864 83.89806574235044 H 0.0 **** 0.06
3769 H 66.6732972915187 101.78719455598161 82.87569848591603 H 0.0 **** 0.06
3770 H 67.07098752167832 103.38137920878745 82.18981669667174 H 0.0 **** 0.06
3771 C 80.05426323895364 16.213497391093995 42.27342514852066 C 0.0 **** -0.24
3772 H 79.99115206098196 15.542596432753584 43.13037891880285 H 0.0 **** 0.06
3773 H 81.10090637619757 16.394089641374563 42.028930908583646 H 0.0 **** 0.06
3774 H 79.56847649267459 17.15905390524597 42.515183290779504 H 0.0 **** 0.06
3775 H 79.5546057267808 15.757284050030563 41.418566303709014 H 0.0 **** 0.06
3776 C 21.794126266401022 46.64297688456465 21.622401505131062 C 0.0 **** -0.24
3777 H 21.30096490796605 45.875800408632294 22.22063061602485 H 0.0 **** 0.06
3778 H 22.45269530654352 46.16834415670546 20.89470893452385 H 0.0 **** 0.06
3779 H 22.379315543490144 47.29064865385067 22.274873443152618 H 0.0 **** 0.06
3780 H 21.04255099032162 47.23549117045434 21.10192458352347 H 0.0 **** 0.06
3781 C 76.3793122495274 31.034029321194765 93.48364761455065 C 0.0 **** -0.24
3782 H 75.35852802457583 31.390949658953758 93.62287166160536 H 0.0 **** 0.06
3783 H 76.5003028187607 30.67090624674867 92.46263643889102 H 0.0 **** 0.06
3784 H 76.57838912885359 30.222934584930044 94.18427490651337 H 0.0 **** 0.06
3785 H 77.07768230148201 31.851439223250708 93.66411424026573 H 0.0 **** 0.06
3786 C 54.15037828915416 28.925980032036364 40.675507901774154 C 0.0 **** -0.24
3787 H 54.52333098368399 28.945346045698756 41.69927500517207 H 0.0 **** 0.06
3788 H 54.12464180385945 29.941252986874474 40.27911119759284 H 0.0 **** 0.06
3789 H 53.145268223081814 28.503925092729958 40.66284819640998 H 0.0 **** 0.06
3790 H 54.80991757911693 28.312855575253764 40.0608224366818 H 0.0 **** 0.06
3791 C 12.613891458550569 10.260016493039643 3.8946427919773896 C 0.0 **** -0.24
3792 H 13.162246226514668 10.1043811579095 2.965305620633444 H 0.0 **** 0.06
3793 H 11.853634864959702 9.485091292096158 4.002015058278346 H 0.0 **** 0.06
3794 H 12.133777067175686 11.238761504036773 3.8732353639165353 H 0.0 **** 0.06
3795 H 13.30434939944422 10.211349890926883 4.7364855576007585 H 0.0 **** 0.06
3796 C 40.855459756739144 4.2437422620325265 9.024091404300208 C 0.0 **** -0.24
3797 H 40.002052825203485 3.788741225177887 9.527475511950712 H 0.0 **** 0.06
3798 H 41.68200316569556 3.5332879915631565 8.996009096575023 H 0.0 **** 0.06
3799 H 41.1630939535162 5.137470857388905 9.567648483987881 H 0.0 **** 0.06
3800 H 40.57492441372715 4.515344397732235 8.006621480798458 H 0.0 **** 0.06
3801 C 24.25344068517377 61.82713088458604 29.59544245063948 C 0.0 **** -0.24
3802 H 24.050444531436227 62.873485795617 29.82223706102704 H 0.0 **** 0.06
3803 H 25.010662328390254 61.44694643485411 30.282625200531655 H 0.0 **** 0.06
3804 H 24.616527390320954 61.742260979907996 28.570862028365042 H 0.0 **** 0.06
3805 H 23.338064787534606 61.24683654044139 29.705557108946607 H 0.0 **** 0.06
3806 C 0.04338596768687353 102.72082265410793 79.41786471684804 C 0.0 **** -0.24
3807 H -0.3126121297193265 103.30286981634038 80.26740710894683 H 0.0 **** 0.06
3808 H 0.7320937658816717 101.95202530363895 79.76839156689812 H 0.0 **** 0.06
3809 H 0.5570167992459574 103.37715880987508 78.71615321782775 H 0.0 **** 0.06
3810 H -0.8039790229229027 102.24927134491958 78.92055014902473 H 0.0 **** 0.06
3811 C 87.50736222430163 79.25558487529145 51.541441758260646 C 0.0 **** -0.24
3812 H 87.39826957932215 78.28386231308872 51.05855980517754 H 0.0 **** 0.06
3813 H 86.52208990249335 79.69617516347671 51.694348661510475 H 0.0 **** 0.06
3814 H 88.10436407936183 79.91113479583379 50.906662269322396 H 0.0 **** 0.06
3815 H 88.00395272180364 79.12952412637284 52.50308118453256 H 0.0 **** 0.06
3816 C 53.40720572376284 43.67087846631762 76.59551513759732 C 0.0 **** -0.24
3817 H 53.91060909061861 44.02191027756115 77.49669304102952 H 0.0 **** 0.06
3818 H 53.471913765813326 44.43602739468736 75.82259289193757 H 0.0 **** 0.06
3819 H 52.35981116510797 43.46884714113489 76.82053483555774 H 0.0 **** 0.06
3820 H 53.88595835766816 42.75725565411716 76.24514524033953 H 0.0 **** 0.06
3821 C 102.92433130371835 1.7574913386296291 38.47717353319787 C 0.0 **** -0.24
3822 H 102.15074690814262 2.178125283009112 39.11916894004863 H 0.0 **** 0.06
3823 H 103.31219610377524 0.8425676198761174 38.926574709886616 H 0.0 **** 0.06
3824 H 103.7338903398359 2.4787602527593897 38.36532459494702 H 0.0 **** 0.06
3825 H 102.50144586103566 1.5312225063273779 37.49839103520903 H 0.0 **** 0.06
3826 C 101.90228464576748 82.56059316450279 19.532917071952056 C 0.0 **** -0.24
3827 H 101.00219149424333 82.94449039356641 20.013787255097043 H 0.0 **** 0.06
3828 H 102.77107612656334 83.1061798936453 19.90131678848732 H 0.0 **** 0.06
3829 H 101.82136699455623 82.69197170075955 18.45337646019746 H 0.0 **** 0.06
3830 H 102.01282180470673 81.50099777453886 19.7624361048653 H 0.0 **** 0.06
3831 C 49.786922455625856 44.87716247259014 47.25579144277259 C 0.0 **** -0.24
3832 H 49.71292939502903 45.47152829111933 48.166880461512164 H 0.0 **** 0.06
3833 H 49.19103901462463 43.97006265279279 47.364776709441514 H 0.0 **** 0.06
3834 H 50.828434975809536 44.60942489786734 47.08162755892084 H 0.0 **** 0.06
3835 H 49.414496413152825 45.458090989076126 46.41215422508873 H 0.0 **** 0.06
3836 C 77.78202247010745 41.76590968475681 56.62749531967427 C 0.0 **** -0.24
3837 H 78.38701267621957 42.10705099114692 55.788103714554154 H 0.0 **** 0.06
3838 H 78.43501968021528 41.4084041267253 57.42404557728054 H 0.0 **** 0.06
3839 H 77.1311501338206 40.95500518782694 56.300447976101566 H 0.0 **** 0.06
3840 H 77.17581509176568 42.59214264310779 56.99770543810024 H 0.0 **** 0.06
3841 C 47.24270360328126 8.696862896153306 107.87841288196431 C 0.0 **** -0.24
3842 H 47.619353440547854 9.525563938706654 108.4776034381043 H 0.0 **** 0.06
3843 H 47.207337135979515 8.99354712972135 106.83013307920896 H 0.0 **** 0.06
3844 H 46.24024168716866 8.431305875947658 108.21498006705403 H 0.0 **** 0.06
3845 H 47.90296879852144 7.837417993932149 107.9910723465884 H 0.0 **** 0.06
3846 C 17.554106609675983 105.50087381315726 34.80441768815182 C 0.0 **** -0.24
3847 H 18.281400106154592 106.28031372131652 35.036196822233755 H 0.0 **** 0.06
3848 H 16.628829876149922 105.96006434672694 34.45800055682469 H 0.0 **** 0.06
3849 H 17.35624854504121 104.91224748787391 35.699865658017316 H 0.0 **** 0.06
3850 H 17.952903775640465 104.853150359052 34.02385699305433 H 0.0 **** 0.06
3851 C 14.75554085419816 1.5849238352157045 81.37066126335797 C 0.0 **** -0.24
3852 H 13.7833700792212 1.4798876762984605 80.88834882707279 H 0.0 **** 0.06
3853 H 14.632441042235897 1.5244058859820484 82.45212873470632 H 0.0 **** 0.06
3854 H 15.189086358035084 2.549653114690898 81.10672834048867 H 0.0 **** 0.06
3855 H 15.416041943743977 0.7866181956173364 81.03350367922349 H 0.0 **** 0.06
3856 C 59.4645503492369 107.39088860472644 75.74731549465147 C 0.0 **** -0.24
3857 H 59.52479493161745 107.72457294083601 74.71098434111448 H 0.0 **** 0.06
3858 H 58.957618994044765 106.42707627467301 75.79010847505626 H 0.0 **** 0.06
3859 H 58.9071817580675 108.12254394264058 76.3315496464173 H 0.0 **** 0.06
3860 H 60.47093668908143 107.29134117165009 76.15446377994229 H 0.0 **** 0.06
3861 C 26.499541024737596 46.668916645601726 39.20701197690049 C 0.0 **** -0.24
3862 H 26.73271084063748 45.605750807532765 39.26100342428617 H 0.0 **** 0.06
3863 H 25.49467770358359 46.79989460529637 38.80430936779373 H 0.0 **** 0.06
3864 H 27.219545962110146 47.16580251001589 38.55718802763191 H 0.0 **** 0.06
3865 H 26.5505884472326 47.1029719055367 40.205733195619096 H 0.0 **** 0.06
3866 C 96.12035746012647 87.6026392941401 85.89282757540377 C 0.0 **** -0.24
3867 H 95.76413698323996 87.96562028158769 84.92865350049948 H 0.0 **** 0.06
3868 H 97.15119384269259 87.26208056172626 85.79447629617772 H 0.0 **** 0.06
3869 H 95.49273895487906 86.77472954028545 86.22270227490088 H 0.0 **** 0.06
3870 H 96.07292861486249 88.40900568105182 86.62527461120845 H 0.0 **** 0.06
3871 C 16.56410408081723 79.17096821445952 75.37721427503334 C 0.0 **** -0.24
3872 H 16.701063723465865 79.76301930342731 76.28174365301453 H 0.0 **** 0.06
3873 H 17.263278078340335 79.51118990017119 74.61185625336515 H 0.0 **** 0.06
3874 H 15.54271147626514 79.29068176818669 75.01599595698556 H 0.0 **** 0.06
3875 H 16.751642213680555 78.12061094570058 75.59887142647881 H 0.0 **** 0.06
3876 C 89.26862451405557 18.58395694900031 40.720367597564774 C 0.0 **** -0.24
3877 H 88.6483443221516 17.698651816824565 40.85988162403441 H 0.0 **** 0.06
3878 H 88.71144165961026 19.332111856066263 40.15661999447274 H 0.0 **** 0.06
3879 H 90.17063442608287 18.312911039162145 40.17185589369468 H 0.0 **** 0.06
3880 H 89.54293100430931 18.99136614713308 41.692855901555994 H 0.0 **** 0.06
3881 C 48.996823697220464 78.63340310745463 84.95196853614028 C 0.0 **** -0.24
3882 H 48.687440481281726 77.6006408545156 84.7893399694627 H 0.0 **** 0.06
3883 H 49.64717745210851 78.95088112021745 84.13538253929238 H 0.0 **** 0.06
3884 H 49.536744035181584 78.70616443047442 85.89562294411795 H 0.0 **** 0.06
3885 H 48.11664973555207 79.27434401417514 84.98612031558443 H 0.0 **** 0.06
3886 C 17.264971386578708 0.1600378247791241 42.253494640776296 C 0.0 **** -0.24
3887 H 16.503746605406178 0.9228729119343484 42.091481362930466 H 0.0 **** 0.06
3888 H 18.251496011626628 0.5834335117932596 42.06085457703006 H 0.0 **** 0.06
3889 H 17.08963782078571 -0.6764524508394629 41.576659324253654 H 0.0 **** 0.06
3890 H 17.21412969305095 -0.18984946759161403 43.28452270262599 H 0.0 **** 0.06
3891 C 74.4659411679146 44.98408688667325 82.3900856711408 C 0.0 **** -0.24
3892 H 74.09658671057102 45.578234158597354 83.22586624073963 H 0.0 **** 0.06
3893 H 75.12023307333986 44.19746052616233 82.76522952417199 H 0.0 **** 0.06
3894 H 75.02173873310765 45.625741181843736 81.70664022574348 H 0.0 **** 0.06
3895 H 73.62339042925022 44.53616823197366 81.8629594918721 H 0.0 **** 0.06
3896 C 74.0619121522999 73.3784036271839 13.453543389201126 C 0.0 **** -0.24
3897 H 75.08578000192097 73.01201679585068 13.388889608084298 H 0.0 **** 0.06
3898 H 73.81959208708872 73.5982162750999 14.493752164939501 H 0.0 **** 0.06
3899 H 73.37942639244088 72.61635795503793 13.074321087836548 H 0.0 **** 0.06
3900 H 73.9620685674476 74.28500956165851 12.85663317271749 H 0.0 **** 0.06
3901 C 33.22580814607335 29.102003941798785 28.624454632455866 C 0.0 **** -0.24
3902 H 34.18081967339339 28.602266991531053 28.792251883891282 H 0.0 **** 0.06
3903 H 33.02478858827698 29.151087227596236 27.553889420680207 H 0.0 **** 0.06
3904 H 33.26672430365659 30.110515290698686 29.03398669520766 H 0.0 **** 0.06
3905 H 32.43236906693562 28.541218008671194 29.118208026552026 H 0.0 **** 0.06
3906 C 77.46549534143338 80.57227143757628 10.605358536637539 C 0.0 **** -0.24
3907 H 78.3476361066819 81.09306566053922 10.978420105684506 H 0.0 **** 0.06
3908 H 77.06892930613432 81.10499745402652 9.740755587870353 H 0.0 **** 0.06
3909 H 76.70852578219214 80.53370453848055 11.388753423480296 H 0.0 **** 0.06
3910 H 77.73881503819331 79.5583922096887 10.313128977058 H 0.0 **** 0.06
3911 C 88.94678981111153 9.830535510194009 48.005636739524334 C 0.0 **** -0.24
3912 H 88.75648766514301 10.038484652564291 46.95291166135138 H 0.0 **** 0.06
3913 H 88.1870692670595 9.145036369414834 48.38251010893987 H 0.0 **** 0.06
3914 H 88.90930065472587 10.761840929334905 48.57181401007796 H 0.0 **** 0.06
3915 H 89.9325343369767 9.377975692469176 48.114642328501816 H 0.0 **** 0.06
3916 C 8.70261804109596 44.61865049106164 62.818669017889306 C 0.0 **** -0.24
3917 H 8.647652412846043 44.177256673534565 61.82326901334261 H 0.0 **** 0.06
3918 H 8.467940621159684 43.860574218315875 63.56628507266487 H 0.0 **** 0.06
3919 H 7.984737683121864 45.436321009572886 62.89181706539881 H 0.0 **** 0.06
3920 H 9.708253567198284 45.0017655899526 62.99035432853054 H 0.0 **** 0.06
3921 C 3.2429760083861794 10.772268775732982 27.19023079740191 C 0.0 **** -0.24
3922 H 3.691155988565411 11.135449648813008 26.265212831063366 H 0.0 **** 0.06
3923 H 3.88890073101647 10.012320071162122 27.63125816514338 H 0.0 **** 0.06
3924 H 2.2657602113779234 10.339391202180863 26.9754514370606 H 0.0 **** 0.06
3925 H 3.128244626955289 11.601566200540262 27.887894277409202 H 0.0 **** 0.06
3926 C 73.72676306379148 63.45707799203828 15.738103241613999 C 0.0 **** -0.24
3927 H 72.87852676781972 64.103519855361 15.511623671396762 H 0.0 **** 0.06
3928 H 74.12893869101771 63.04699460507078 14.811112788837193 H 0.0 **** 0.06
3929 H 73.40052611631478 62.64295112045794 16.38493840681207 H 0.0 **** 0.06
3930 H 74.499693053008 64.03560809039547 16.24487938734802 H 0.0 **** 0.06
3931 C 27.739181062963183 20.86921544219973 106.2111061404365 C 0.0 **** -0.24
3932 H 27.928962258302363 19.823637978086197 105.96611474139446 H 0.0 **** 0.06
3933 H 28.353214176821155 21.158274107054694 107.06456986594283 H 0.0 **** 0.06
3934 H 26.686046883369215 20.998363499398636 106.46000978377036 H 0.0 **** 0.06
3935 H 27.98982627926523 21.493903538460984 105.35394769228826 H 0.0 **** 0.06
3936 C 105.79326923790336 79.03732788784994 15.374601755414119 C 0.0 **** -0.24
3937 H 106.44362386442648 78.34213416360666 15.906255259978138 H 0.0 **** 0.06
3938 H 105.46294150310801 78.582037942254 14.441294472172927 H 0.0 **** 0.06
3939 H 106.34190099604676 79.95378252042181 15.15769865418983 H 0.0 **** 0.06
3940 H 104.9272039468161 79.26987408230822 15.99343452177402 H 0.0 **** 0.06
3941 C 105.43883871855985 33.4062477550882 39.14712554886751 C 0.0 **** -0.24
3942 H 104.55641787275067 32.7763440212012 39.03451737241039 H 0.0 **** 0.06
3943 H 105.85628551339704 33.27045032829719 40.14464751773073 H 0.0 **** 0.06
3944 H 105.1585553657452 34.450303973004566 39.00756653403732 H 0.0 **** 0.06
3945 H 106.18174214887239 33.12628883224551 38.40039711941802 H 0.0 **** 0.06
3946 C 38.655455830929725 27.262406965619704 55.44372792594538 C 0.0 **** -0.24
3947 H 38.491174754982524 27.015790388439314 54.39471464579424 H 0.0 **** 0.06
3948 H 38.463753840757505 26.38223252911945 56.057946292866745 H 0.0 **** 0.06
3949 H 37.98151300387468 28.06656216725787 55.73869627915201 H 0.0 **** 0.06
3950 H 39.68753944725654 27.58487950839924 55.58240650024385 H 0.0 **** 0.06
3951 C 6.275198601695365 24.313174956108526 94.8434580849312 C 0.0 **** -0.24
3952 H 6.550390106433383 25.28529183110019 95.2521661281857 H 0.0 **** 0.06
3953 H 6.700741923648081 23.52471249268068 95.46368357248167 H 0.0 **** 0.06
3954 H 6.66057252869534 24.224570620717113 93.82698076341165 H 0.0 **** 0.06
3955 H 5.189473782006289 24.218630929870876 94.8293904611166 H 0.0 **** 0.06
3956 C 5.49410439172874 61.77038615741583 14.212787033080232 C 0.0 **** -0.24
3957 H 6.067071536917524 60.88278993000142 14.47945238077017 H 0.0 **** 0.06
3958 H 4.704631897800141 61.49598973537422 13.511807191059429 H 0.0 **** 0.06
3959 H 6.153285938354486 62.504256031993464 13.749030025855593 H 0.0 **** 0.06
3960 H 5.0494244856930095 62.197832651385966 15.111585202039624 H 0.0 **** 0.06
3961 C 79.87818322871982 59.42371687815867 34.49455816421373 C 0.0 **** -0.24
3962 H 80.37747670549322 58.5649440807334 34.04656805390454 H 0.0 **** 0.06
3963 H 78.86184078679474 59.495982367411784 34.1055714399848 H 0.0 **** 0.06
3964 H 80.426950276181 60.332064105617064 34.24819898056444 H 0.0 **** 0.06
3965 H 79.84598286353557 59.30048130997176 35.57654519553639 H 0.0 **** 0.06
3966 C 82.37307473228613 28.34003120074491 45.714420931099056 C 0.0 **** -0.24
3967 H 81.45899893742823 27.812080297309336 45.44004123085088 H 0.0 **** 0.06
3968 H 82.19283143193763 28.934416823435306 46.60974652117258 H 0.0 **** 0.06
3969 H 82.67272460783255 28.99449260360256 44.89660308476499 H 0.0 **** 0.06
3970 H 83.16486289127432 27.616477159807978 45.90966935788384 H 0.0 **** 0.06
3971 C 96.13558353626776 84.10067484872303 5.1005935123221775 C 0.0 **** -0.24
3972 H 96.60024256967445 83.96192413690844 6.076784111663443 H 0.0 **** 0.06
3973 H 95.36598589780598 83.34135355566264 4.954037644578321 H 0.0 **** 0.06
3974 H 96.89227937072565 84.00717860199444 4.321730416439905 H 0.0 **** 0.06
3975 H 95.68305303224923 85.09106969463713 5.0518282321928325 H 0.0 **** 0.06
3976 C 2.876782807473745 71.30100863703194 43.87448732241867 C 0.0 **** -0.24
3977 H 2.4095928582342623 72.13519284777118 43.35119571122564 H 0.0 **** 0.06
3978 H 2.7940768684744057 71.45587280782092 44.950639133449855 H 0.0 **** 0.06
3979 H 3.9283124336024997 71.24025405656585 43.594519156250115 H 0.0 **** 0.06
3980 H 2.3740008337621106 70.37378056000733 43.600351912314125 H 0.0 **** 0.06
3981 C 17.96646845402921 57.69898221809353 73.12298014693067 C 0.0 **** -0.24
3982 H 17.566021118300313 56.98742040559512 73.84575717361736 H 0.0 **** 0.06
3983 H 18.978903129569346 57.980128477484016 73.41233227934958 H 0.0 **** 0.06
3984 H 17.33423830163312 58.58650043152693 73.10050106859279 H 0.0 **** 0.06
3985 H 17.984522327772822 57.23989648086922 72.13483887290192 H 0.0 **** 0.06
3986 C 99.05251782005644 39.933885676608185 103.15530806315435 C 0.0 **** -0.24
3987 H 99.75027550619515 40.766766550029004 103.07659047563315 H 0.0 **** 0.06
3988 H 98.34422389755923 40.12888754685912 103.9620322865162 H 0.0 **** 0.06
3989 H 99.60328009777427 39.01822015160624 103.37029042989927 H 0.0 **** 0.06
3990 H 98.51155527150958 39.82132625645073 102.21553480314469 H 0.0 **** 0.06
3991 C 33.710153780154485 1.048041682791478 4.0684106579082595 C 0.0 **** -0.24
3992 H 33.237482913603856 1.6905501814775334 3.3254827017475463 H 0.0 **** 0.06
3993 H 34.069254451234805 1.6557172598344323 4.8984479576483295 H 0.0 **** 0.06
3994 H 34.549996119090196 0.5230395075096936 3.611734081940199 H 0.0 **** 0.06
3995 H 32.983883950152816 0.3228386465867885 4.434977891322518 H 0.0 **** 0.06
3996 C 97.9720728667702 54.10009365882442 23.247466097799474 C 0.0 **** -0.24
3997 H 98.63353784081583 53.56408081337807 23.928582984850408 H 0.0 **** 0.06
3998 H 96.938813080849 53.97461175819177 23.57088434747058 H 0.0 **** 0.06
3999 H 98.08885512401936 53.703113934183364 22.239449318367775 H 0.0 **** 0.06
4000 H 98.22813383388356 55.16043079801784 23.25214423317371 H 0.0 **** 0.06
4001 C 95.15922513621281 64.14459983024477 43.09235300018091 C 0.0 **** -0.24
4002 H 95.1250369894671 64.35914202535042 42.02433630166797 H 0.0 **** 0.06
4003 H 95.03975988852581 63.073140254099314 43.25176214392661 H 0.0 **** 0.06
4004 H 94.35324485358318 64.67953831120161 43.59621165591432 H 0.0 **** 0.06
4005 H 96.11827269912249 64.46781576000927 43.496746474314506 H 0.0 **** 0.06
4006 C 96.0891386084887 70.59099216253651 24.067093801790918 C 0.0 **** -0.24
4007 H 96.94209125211799 71.19196814028723 24.38263862184789 H 0.0 **** 0.06
4008 H 96.13295061279686 70.43634607941344 22.9881104578173 H 0.0 **** 0.06
4009 H 95.16567937897159 71.1100567044552 24.322097474186762 H 0.0 **** 0.06
4010 H 96.11652937413741 69.62676598502392 24.573491303108284 H 0.0 **** 0.06
4011 C 16.756161088531627 82.13116003237204 28.128682990277397 C 0.0 **** -0.24
4012 H 15.77653031400645 82.60816967790007 28.143622002191847 H 0.0 **** 0.06
4013 H 16.80086393938319 81.41717021126858 27.306718867427833 H 0.0 **** 0.06
4014 H 16.920483226464995 81.61049763627231 29.072281308289547 H 0.0 **** 0.06
4015 H 17.526822538215583 82.89029244098126 27.99377637708237 H 0.0 **** 0.06
4016 C 0.5399023640855916 87.26971682987067 67.74658590937247 C 0.0 **** -0.24
4017 H -0.2721422192660583 87.8885140416653 68.12787903709818 H 0.0 **** 0.06
4018 H 0.8153697470156374 86.52987373709658 68.49876595965753 H 0.0 **** 0.06
4019 H 1.4013874617026687 87.89958574047164 67.52381143585399 H 0.0 **** 0.06
4020 H 0.21572945913381147 86.76313665106716 66.83879066837352 H 0.0 **** 0.06
4021 C 36.00475855185404 76.34033583947868 80.60432294700789 C 0.0 **** -0.24
4022 H 35.267298268001525 77.07588093827287 80.92372636085673 H 0.0 **** 0.06
4023 H 36.977750075526785 76.82093454261985 80.5019694039728 H 0.0 **** 0.06
4024 H 35.70481479204698 75.91846991616137 79.64442148918462 H 0.0 **** 0.06
4025 H 36.068057848997725 75.54417112698643 81.3467263816269 H 0.0 **** 0.06
4026 C 25.764680324415053 60.763648357474935 56.652935933903194 C 0.0 **** -0.24
4027 H 26.226741940317993 61.5945060014907 56.11973662498796 H 0.0 **** 0.06
4028 H 24.716591191794464 60.68457779348732 56.364138632110624 H 0.0 **** 0.06
4029 H 25.834330776480044 60.93844722144895 57.72672830281278 H 0.0 **** 0.06
4030 H 26.28357501572458 59.838276164588905 56.401574641595346 H 0.0 **** 0.06
4031 C 48.37514793512338 14.648873180809986 100.58975499409674 C 0.0 **** -0.24
4032 H 48.394156426635504 13.839518504118416 99.8591130811568 H 0.0 **** 0.06
4033 H 49.22517232024586 14.546501594930277 101.26558969965889 H 0.0 **** 0.06
4034 H 47.448286142561926 14.601156263960107 101.16078751789941 H 0.0 **** 0.06
4035 H 48.43602814711551 15.606332245707733 100.0726615903873 H 0.0 **** 0.06
4036 C 60.65642023216469 87.15492657468576 86.14989288860085 C 0.0 **** -0.24
4037 H 60.06408393757903 86.57834306164477 85.43943597377364 H 0.0 **** 0.06
4038 H 60.09811156784548 87.26952226352915 87.07954829583122 H 0.0 **** 0.06
4039 H 60.869679050937805 88.13849210253937 85.72983640111585 H 0.0 **** 0.06
4040 H 61.59325206057349 86.63474406013029 86.34881530026468 H 0.0 **** 0.06
4041 C 16.598105315029475 5.852450725582543 55.82858696445454 C 0.0 **** -0.24
4042 H 17.627652869977307 5.538056424477077 56.00172550110395 H 0.0 **** 0.06
4043 H 16.08127619481407 5.945768973095525 56.78448199034396 H 0.0 **** 0.06
4044 H 16.091441570434846 5.111254381313088 55.21184341097852 H 0.0 **** 0.06
4045 H 16.594304746997544 6.81477515402328 55.317254307798045 H 0.0 **** 0.06
4046 C 2.8575521645917235 21.0452696046259 38.796016940518314 C 0.0 **** -0.24
4047 H 2.3486851997756446 21.556650470840793 39.61226250177265 H 0.0 **** 0.06
4048 H 2.628010277524382 21.54568608638965 37.85493949342691 H 0.0 **** 0.06
4049 H 2.5185510925411165 20.00923008238152 38.74855784039744 H 0.0 **** 0.06
4050 H 3.933260587039797 21.06674972055805 38.96761765735005 H 0.0 **** 0.06
4051 C 32.62533963477014 93.80486024393156 95.50417281159743 C 0.0 **** -0.24
4052 H 33.453906755101656 93.5729113688671 94.83476701097038 H 0.0 **** 0.06
4053 H 32.89028358295218 94.65696721307069 96.12920658959511 H 0.0 **** 0.06
4054 H 32.41798242348011 92.94094951285604 96.13661028606212 H 0.0 **** 0.06
4055 H 31.739986549722857 94.04556935633548 94.91579717043886 H 0.0 **** 0.06
4056 C 52.72972852317209 52.36979765448592 91.55287713589081 C 0.0 **** -0.24
4057 H 53.45786781059631 52.27947995533566 92.3588645722661 H 0.0 **** 0.06
4058 H 51.746236125701095 52.58112306292895 91.9737835239643 H 0.0 **** 0.06
4059 H 52.691923956180645 51.43701329857856 90.99065920771255 H 0.0 **** 0.06
4060 H 53.021984782917414 53.18329051652137 90.88770905095754 H 0.0 **** 0.06
4061 C 43.910551883325525 57.49299243418051 85.79816195011136 C 0.0 **** -0.24
4062 H 43.601455906021044 56.4536381437986 85.68519637206941 H 0.0 **** 0.06
4063 H 44.94901409583957 57.52952849890278 86.12869826672676 H 0.0 **** 0.06
4064 H 43.27588224212272 57.98175648512955 86.53855042921128 H 0.0 **** 0.06
4065 H 43.81403779211357 58.00683693542132 84.84235984562838 H 0.0 **** 0.06
4066 C 85.73827466687771 98.9131104478806 100.17765571452544 C 0.0 **** -0.24
4067 H 86.2381948031458 99.53369170999305 99.4344097352142 H 0.0 **** 0.06
4068 H 85.77941554019867 99.40645757084336 101.14950857449774 H 0.0 **** 0.06
4069 H 86.23827700160317 97.94669275851332 100.23912408452424 H 0.0 **** 0.06
4070 H 84.69736489127297 98.76726856275168 99.88801822697732 H 0.0 **** 0.06
4071 C 97.0482861775829 72.72253489260264 3.576432031915374 C 0.0 **** -0.24
4072 H 97.0854373755335 71.69551277937056 3.2121625332815 H 0.0 **** 0.06
4073 H 97.63112408164181 73.36366011394246 2.9150287539442132 H 0.0 **** 0.06
4074 H 97.46338167841657 72.7655380526541 4.583674478348016 H 0.0 **** 0.06
4075 H 96.01303179261188 73.06371777630908 3.5950728884048715 H 0.0 **** 0.06
4076 C 0.5303517455849089 57.199352887983125 77.10243827983732 C 0.0 **** -0.24
4077 H 0.09700873254034548 57.85370338343527 77.8592124558568 H 0.0 **** 0.06
4078 H -0.14567262809396198 56.365701123864994 76.91223142218769 H 0.0 **** 0.06
4079 H 1.4870350262293073 56.81743224811886 77.45930885380935 H 0.0 **** 0.06
4080 H 0.683697575939533 57.76082425283537 76.18058153934311 H 0.0 **** 0.06
4081 C 86.28594033377317 27.088584102649634 48.81135912292119 C 0.0 **** -0.24
4082 H 86.20909470316559 26.804910576289785 47.76203128509491 H 0.0 **** 0.06
4083 H 87.23587444973987 27.593772808233552 48.983551944236915 H 0.0 **** 0.06
4084 H 86.2312010890438 26.19537631156959 49.43397243652394 H 0.0 **** 0.06
4085 H 85.46529045102841 27.76012044536219 49.06670721743792 H 0.0 **** 0.06
4086 C 58.782525928650216 62.80959894459096 99.57737529845554 C 0.0 **** -0.24
4087 H 59.369059284773414 62.0612000234247 100.11036173820702 H 0.0 **** 0.06
4088 H 58.28544934794223 63.46168846634686 100.29591410513217 H 0.0 **** 0.06
4089 H 58.03513142573229 62.312212485811585 98.95917142091909 H 0.0 **** 0.06
4090 H 59.44238545687199 63.40381561330645 98.94424270609224 H 0.0 **** 0.06
4091 C 37.13636368077792 98.45052297395095 27.863220578730704 C 0.0 **** -0.24
4092 H 38.09084540409532 98.45924343213738 27.335699469601252 H 0.0 **** 0.06
4093 H 36.33837412539745 98.19580841171111 27.164850269866577 H 0.0 **** 0.06
4094 H 36.94763009378465 99.43687843966192 28.287183312505277 H 0.0 **** 0.06
4095 H 37.16988448131325 97.71102858609689 28.662390271300865 H 0.0 **** 0.06
4096 C 64.81267418080131 75.1181795336166 84.7251894882923 C 0.0 **** -0.24
4097 H 65.60390634663156 74.48691482856916 84.32262605124612 H 0.0 **** 0.06
4098 H 65.25547218217179 75.97689572900535 85.23138645409117 H 0.0 **** 0.06
4099 H 64.2165080619639 74.54537736240934 85.43509896441427 H 0.0 **** 0.06
4100 H 64.17473859690239 75.46451750809808 83.91178855217231 H 0.0 **** 0.06
4101 C 34.940108225751686 69.53545028787386 80.6393071106383 C 0.0 **** -0.24
4102 H 35.06382557437968 68.76206590579264 81.39786001892435 H 0.0 **** 0.06
4103 H 34.4298077266175 69.11453197922404 79.77263296708526 H 0.0 **** 0.06
4104 H 35.91857098869269 69.90886251746286 80.3384853147441 H 0.0 **** 0.06
4105 H 34.34776637888609 70.35420441953795 81.04777824835301 H 0.0 **** 0.06
4106 C 32.496100104704254 19.479327898732656 18.242500564616336 C 0.0 **** -0.24
4107 H 31.951844918670744 20.158979236709715 18.89784184233666 H 0.0 **** 0.06
4108 H 31.986325526379943 19.417016993603404 17.280453189245222 H 0.0 **** 0.06
4109 H 32.534449488852516 18.489436346859172 18.697958507844334 H 0.0 **** 0.06
4110 H 33.50964861204483 19.850676800596283 18.093849164264782 H 0.0 **** 0.06
4111 C 65.73914154069064 6.475787427792596 13.760178923635664 C 0.0 **** -0.24
4112 H 65.76931227697133 5.858645570595144 14.658204827583205 H 0.0 **** 0.06
4113 H 64.89243143571917 6.176980239123452 13.142697672934645 H 0.0 **** 0.06
4114 H 66.66409550243986 6.344489166261525 13.198673093943626 H 0.0 **** 0.06
4115 H 65.63172909771873 7.523207146085753 14.043368612357213 H 0.0 **** 0.06
4116 C 107.83678666729928 88.08113178405112 31.30499128094624 C 0.0 **** -0.24
4117 H 107.46972211680907 87.05462210786541 31.33801302323519 H 0.0 **** 0.06
4118 H 107.07228086230344 88.7528269703625 31.69579471931604 H 0.0 **** 0.06
4119 H 108.06626418039416 88.35108148573676 30.274865549308345 H 0.0 **** 0.06
4120 H 108.73824173891181 88.16421616975015 31.91248500548437 H 0.0 **** 0.06
4121 C 98.54051686002332 80.1288987033443 18.626636087573445 C 0.0 **** -0.24
4122 H 98.94115180647461 81.13988913939482 18.691642075537132 H 0.0 **** 0.06
4123 H 99.34374622429256 79.4356775511144 18.37193035552103 H 0.0 **** 0.06
4124 H 97.77081642299319 80.09228975204832 17.8550701899847 H 0.0 **** 0.06
4125 H 98.10769879908963 79.84660967954062 19.585684695107858 H 0.0 **** 0.06
4126 C 0.8971461234261824 25.352389618800757 2.4709021560414435 C 0.0 **** -0.24
4127 H 0.21542486733318356 24.708589925226896 1.9159328750923672 H 0.0 **** 0.06
4128 H 1.9125479839751165 24.965035319332575 2.386234694419251 H 0.0 **** 0.06
4129 H 0.602891633942022 25.37571025351008 3.519649147509698 H 0.0 **** 0.06
4130 H 0.8582921173670002 26.361368385954904 2.060625340102387 H 0.0 **** 0.06
4131 C 100.04405387983954 82.95357981433689 37.22562379855437 C 0.0 **** -0.24
4132 H 99.05737394842603 82.65954579727263 36.86734376040115 H 0.0 **** 0.06
4133 H 100.5652206912921 82.07836359138466 37.61426709100624 H 0.0 **** 0.06
4134 H 99.93623433636554 83.69461339224681 38.01760172751366 H 0.0 **** 0.06
4135 H 100.61677365717247 83.38123248857787 36.40213964224063 H 0.0 **** 0.06
4136 C 106.3994766610515 35.08300146102172 79.06864426525902 C 0.0 **** -0.24
4137 H 105.56329302409813 34.440358309816986 78.79280449714997 H 0.0 **** 0.06
4138 H 107.24673040012226 34.87612459113018 78.41466266239712 H 0.0 **** 0.06
4139 H 106.68165128921328 34.88762809963802 80.10301343190605 H 0.0 **** 0.06
4140 H 106.10485133856525 36.12724224641758 78.962804850293 H 0.0 **** 0.06
4141 C 61.75451233153808 97.17896339813473 87.87549995760985 C 0.0 **** -0.24
4142 H 61.58019696713683 97.93957206995285 87.11429139376176 H 0.0 **** 0.06
4143 H 61.212408275401856 97.44292298476532 88.78359488464488 H 0.0 **** 0.06
4144 H 62.82153926656204 97.12012363393342 88.09255137045902 H 0.0 **** 0.06
4145 H 61.40471747216009 96.21310618350046 87.51041191124453 H 0.0 **** 0.06
4146 C 12.67072151453398 96.08868420821265 58.98153788158389 C 0.0 **** -0.24
4147 H 13.070425248484526 95.71322485541097 58.04004544128192 H 0.0 **** 0.06
4148 H 11.654237861023944 96.45355455813157 58.82422093199306 H 0.0 **** 0.06
4149 H 13.297851583525343 96.90374691410105 59.34288747663736 H 0.0 **** 0.06
4150 H 12.658039297803612 95.28444202677184 59.717413928889684 H 0.0 **** 0.06
4151 C 107.69292091595727 29.32987939992225 107.93699136271059 C 0.0 **** -0.24
4152 H 108.44369458368413 28.846468220684272 108.56232120284105 H 0.0 **** 0.06
4153 H 106.752338867954 29.396996922825338 108.48495174419568 H 0.0 **** 0.06
4154 H 107.54508573995096 28.74398124746824 107.02982766315208 H 0.0 **** 0.06
4155 H 108.03124374082205 30.33162611423694 107.67144839412134 H 0.0 **** 0.06
4156 C 33.982086626225765 52.03699432931816 28.141042978620987 C 0.0 **** -0.24
4157 H 32.932790270220025 52.3333249187745 28.141531490298206 H 0.0 **** 0.06
4158 H 34.60769630600953 52.914856310524 28.30269302250761 H 0.0 **** 0.06
4159 H 34.23023582595235 51.58452529766545 27.18077810428727 H 0.0 **** 0.06
4160 H 34.154780430351536 51.31380180928897 28.938299718626013 H 0.0 **** 0.06
4161 C 87.09349146992837 95.1783475355376 68.89971628417237 C 0.0 **** -0.24
4162 H 86.10918050427149 95.03503859296787 69.3432692530539 H 0.0 **** 0.06
4163 H 87.84047541402805 95.25626155312273 69.69028399382057 H 0.0 **** 0.06
4164 H 87.09547583733467 96.0931128047361 68.30673108692577 H 0.0 **** 0.06
4165 H 87.33013375065991 94.32932773542899 68.25901461007476 H 0.0 **** 0.06
4166 C 78.99943196952317 88.57701293817787 48.85777878939229 C 0.0 **** -0.24
4167 H 79.21685919231936 87.74348292697576 48.18990006772292 H 0.0 **** 0.06
4168 H 79.4887272161946 88.41131727013527 49.81760584257005 H 0.0 **** 0.06
4169 H 77.92162127874238 88.65076992216633 49.00687254190013 H 0.0 **** 0.06
4170 H 79.36899412553758 89.50255850220636 48.415446196142796 H 0.0 **** 0.06
4171 C 23.72617053498655 6.839136158750279 82.93741196848185 C 0.0 **** -0.24
4172 H 24.117953119349522 5.961079038425964 82.4248264441681 H 0.0 **** 0.06
4173 H 23.225943824772372 6.529975560404296 83.85505613427813 H 0.0 **** 0.06
4174 H 23.013889234806157 7.350001790341452 82.28979904335603 H 0.0 **** 0.06
4175 H 24.546708403262215 7.514149881978028 83.1803830295022 H 0.0 **** 0.06
4176 C 53.12402195325632 14.322213977163017 43.762362191115585 C 0.0 **** -0.24
4177 H 52.16902887024189 14.347559293300264 44.288183207405666 H 0.0 **** 0.06
4178 H 53.50128253557028 13.299856048108666 43.7432161309593 H 0.0 **** 0.06
4179 H 53.83823058768127 14.964407284324238 44.278030361362454 H 0.0 **** 0.06
4180 H 52.985007423347554 14.67897841813766 42.74168448897362 H 0.0 **** 0.06
4181 C 28.981124628095415 32.402340281374535 88.79620414533747 C 0.0 **** -0.24
4182 H 29.941249942738267 32.81938941121825 88.49054531415368 H 0.0 **** 0.06
4183 H 28.173748624821563 32.99065106019731 88.35803252118194 H 0.0 **** 0.06
4184 H 28.902718748663325 32.42913203776146 89.88294402756094 H 0.0 **** 0.06
4185 H 28.907975899205717 31.370569319865382 88.45209977155935 H 0.0 **** 0.06
4186 C 38.48153636839629 13.145352690704868 53.86063903118151 C 0.0 **** -0.24
4187 H 39.337307614587644 13.803949795841248 54.00701615306473 H 0.0 **** 0.06
4188 H 38.694158880893156 12.446658964085316 53.05124875061006 H 0.0 **** 0.06
4189 H 37.60433477998117 13.740323417940061 53.60659166176999 H 0.0 **** 0.06
4190 H 38.289402565777095 12.590009988396233 54.778644992983544 H 0.0 **** 0.06
4191 C 9.052660820086468 36.15268599260099 26.949733145728924 C 0.0 **** -0.24
4192 H 9.458165359467332 35.18069257644996 27.231326381656068 H 0.0 **** 0.06
4193 H 9.411879990075787 36.4225087185869 25.956823216037307 H 0.0 **** 0.06
4194 H 9.377906866190003 36.903641606419455 27.670533809496035 H 0.0 **** 0.06
4195 H 7.963916322776997 36.104031628995216 26.943328500573372 H 0.0 **** 0.06
4196 C 12.067968707119121 70.8492591622176 94.5536907041345 C 0.0 **** -0.24
4197 H 11.0238207005645 71.10158581233037 94.73642281916128 H 0.0 **** 0.06
4198 H 12.645606703923704 71.01265716685543 95.46510303971402 H 0.0 **** 0.06
4199 H 12.461296500810988 71.48017025914297 93.75648037580457 H 0.0 **** 0.06
4200 H 12.142992238827844 69.8022678836262 94.25966926993682 H 0.0 **** 0.06
4201 C 22.271366861479994 88.9866238605488 98.63687616838497 C 0.0 **** -0.24
4202 H 21.197655567705162 88.84197578174496 98.75713364676106 H 0.0 **** 0.06
4203 H 22.52854240493655 88.92965376595444 97.57879722435464 H 0.0 **** 0.06
4204 H 22.806568020178076 88.2108551949101 99.18406401468279 H 0.0 **** 0.06
4205 H 22.550975548697167 89.96550314888106 99.02661863883617 H 0.0 **** 0.06
4206 C 89.45692153563158 16.407148833647557 47.76734550069514 C 0.0 **** -0.24
4207 H 90.28406317163262 17.034752632506425 47.434464010510965 H 0.0 **** 0.06
4208 H 88.5120394666867 16.897121578840736 47.52837156634291 H 0.0 **** 0.06
4209 H 89.52600014405448 16.255659801448285 48.843609400189564 H 0.0 **** 0.06
4210 H 89.50501574828598 15.443731243467035 47.26037772335502 H 0.0 **** 0.06
4211 C 60.108874164858264 36.966311585052104 66.94553423326956 C 0.0 **** -0.24
4212 H 61.04924228861819 36.57897963696426 66.5530044487021 H 0.0 **** 0.06
4213 H 60.24728695911955 37.27374023635818 67.98137317502517 H 0.0 **** 0.06
4214 H 59.34673333714511 36.187962072538355 66.89585213815384 H 0.0 **** 0.06
4215 H 59.79273870171323 37.82252789464442 66.34954105288872 H 0.0 **** 0.06
4216 C 1.222732420496186 52.07981068493463 97.0962118604208 C 0.0 **** -0.24
4217 H 0.9415724218912658 53.04726539088728 96.68050006453909 H 0.0 **** 0.06
4218 H 1.5955143821573756 52.21575213601243 98.11123815345962 H 0.0 **** 0.06
4219 H 2.0025418895844496 51.63237741655642 96.47865165788751 H 0.0 **** 0.06
4220 H 0.35160838593981225 51.42479374907874 97.11272237756098 H 0.0 **** 0.06
4221 C 5.813418144644524 62.736654862821666 25.88259325659891 C 0.0 **** -0.24
4222 H 5.663474787955602 63.4118015180743 25.03943496631271 H 0.0 **** 0.06
4223 H 6.60636866892794 63.125274340079415 26.521950163632226 H 0.0 **** 0.06
4224 H 6.093812867538013 61.75026153202481 25.513215595912072 H 0.0 **** 0.06
4225 H 4.888084347968517 62.66146412765926 26.45506042276557 H 0.0 **** 0.06
4226 C 52.721794582764446 19.927631050813346 10.340220212616146 C 0.0 **** -0.24
4227 H 53.700696565136575 20.407214396063154 10.344532450014356 H 0.0 **** 0.06
4228 H 51.94879998855779 20.680822380490937 10.184685372581896 H 0.0 **** 0.06
4229 H 52.55810497829436 19.429233506360717 11.296026415239567 H 0.0 **** 0.06
4230 H 52.68152983864727 19.19307992671679 9.536031024608633 H 0.0 **** 0.06
4231 C 91.39621236558831 17.44601744634224 102.42542572104483 C 0.0 **** -0.24
4232 H 91.5691991457212 18.43395552214031 102.85228963192486 H 0.0 **** 0.06
4233 H 91.65665244417671 16.68270293873161 103.15953596845242 H 0.0 **** 0.06
4234 H 92.01570646759963 17.32104548162124 101.53664285130009 H 0.0 **** 0.06
4235 H 90.34562520942788 17.346799220439948 102.1538392774282 H 0.0 **** 0.06
4236 C 7.776108370888636 74.56910195467587 100.16916775340272 C 0.0 **** -0.24
4237 H 8.408314463848058 74.75582925196905 99.30075755953946 H 0.0 **** 0.06
4238 H 7.34737519039183 73.5697891637819 100.09821961753308 H 0.0 **** 0.06
4239 H 6.975225181048955 75.30751641252024 100.20154133759857 H 0.0 **** 0.06
4240 H 8.375708733891855 74.64340388733112 101.07724185114654 H 0.0 **** 0.06
4241 C 64.28535858333281 33.120557062883535 107.02826737240535 C 0.0 **** -0.24
4242 H 65.23441672987425 32.90776206149138 107.5202874776133 H 0.0 **** 0.06
4243 H 63.58781392763912 33.54251490085261 107.75175883563183 H 0.0 **** 0.06
4244 H 63.87252427028213 32.197084087161954 106.62152127854561 H 0.0 **** 0.06
4245 H 64.44675186360898 33.83269085150337 106.2200103228024 H 0.0 **** 0.06
4246 C 106.89082221206708 16.069753520433494 38.33495936411748 C 0.0 **** -0.24
4247 H 107.09864860439059 15.315275469414615 39.093251452620336 H 0.0 **** 0.06
4248 H 107.63007144201703 15.995964095389382 37.53675161670424 H 0.0 **** 0.06
4249 H 106.93964330886284 17.060906844927388 38.78684927804204 H 0.0 **** 0.06
4250 H 105.8941436675129 15.907217419320489 37.92411050895112 H 0.0 **** 0.06
4251 C 13.820701975270548 66.13761376324702 80.50943948115857 C 0.0 **** -0.24
4252 H 13.011034289708046 65.40814633681377 80.48963102865694 H 0.0 **** 0.06
4253 H 13.607163375464165 66.93662954041869 79.7989819167194 H 0.0 **** 0.06
4254 H 14.756030325726318 65.64786166881832 80.23615265462618 H 0.0 **** 0.06
4255 H 13.90933875612664 66.55595579460886 81.51201333138752 H 0.0 **** 0.06
4256 C 82.15888608759116 78.19500530839093 56.27379945236666 C 0.0 **** -0.24
4257 H 82.44786860090142 78.7453086701716 57.168971033269884 H 0.0 **** 0.06
4258 H 81.58532175277332 77.31322493188992 56.5588120258696 H 0.0 **** 0.06
4259 H 83.05381956945871 77.8874424262811 55.731291309751526 H 0.0 **** 0.06
4260 H 81.5490877788456 78.83435649230273 55.63485971535346 H 0.0 **** 0.06
4261 C 61.44791097565685 95.66571190794866 109.31478383406008 C 0.0 **** -0.24
4262 H 60.361750885767876 95.5756287346639 109.2886655248972 H 0.0 **** 0.06
4263 H 61.89290754846742 94.86840140680982 108.72000417074906 H 0.0 **** 0.06
4264 H 61.794514472847496 95.58789772683895 110.34507641965848 H 0.0 **** 0.06
4265 H 61.74214472597018 96.63229065201682 108.90526958865644 H 0.0 **** 0.06
4266 C 44.81891912560684 10.766374211861844 24.6387943815607 C 0.0 **** -0.24
4267 H 44.54708909085207 11.058406006720645 23.624349836640363 H 0.0 **** 0.06
4268 H 44.13577695563083 9.991643134174325 24.98945730099939 H 0.0 **** 0.06
4269 H 44.752274851143795 11.633485187758922 25.296621871807588 H 0.0 **** 0.06
4270 H 45.83858409532502 10.382360276591328 24.646174594205718 H 0.0 **** 0.06
4271 C 36.153138218846294 86.97484315703468 36.37037236082597 C 0.0 **** -0.24
4272 H 36.34907856938112 88.04050419272238 36.24820918566536 H 0.0 **** 0.06
4273 H 36.33928920467238 86.4610009904691 35.42681899980818 H 0.0 **** 0.06
4274 H 35.11523807897328 86.82765872952497 36.66724919460421 H 0.0 **** 0.06
4275 H 36.81156264189117 86.57128484590066 37.14021252490522 H 0.0 **** 0.06
4276 C 17.896939373712726 17.04503594819657 3.0072128034711207 C 0.0 **** -0.24
4277 H 17.760995281594248 17.901294399805053 2.3466490091924417 H 0.0 **** 0.06
4278 H 18.897775747107133 16.63562112688851 2.870132825931556 H 0.0 **** 0.06
4279 H 17.155719109996866 16.281981144495205 2.7686907440071638 H 0.0 **** 0.06
4280 H 17.771898733979313 17.36147797100982 4.043107192332629 H 0.0 **** 0.06
4281 C 50.858148346990504 12.986462023124375 47.052960488072245 C 0.0 **** -0.24
4282 H 50.801775053738936 11.9848408535712 47.480134910759624 H 0.0 **** 0.06
4283 H 51.89537195577091 13.218227294799703 46.807978896987365 H 0.0 **** 0.06
4284 H 50.484894452645875 13.71141974200907 47.77703904216738 H 0.0 **** 0.06
4285 H 50.25141205881073 13.030820790080725 46.14891834061825 H 0.0 **** 0.06
4286 C 58.35982589054896 64.15445540215156 63.70135099866074 C 0.0 **** -0.24
4287 H 59.09312343171371 64.92778586300285 63.933335159911024 H 0.0 **** 0.06
4288 H 58.12608670522013 63.593117356320604 64.60544966951292 H 0.0 **** 0.06
4289 H 58.77080222268307 63.479620111107366 62.94981344285999 H 0.0 **** 0.06
4290 H 57.45312142151505 64.61932425639097 63.316330562853935 H 0.0 **** 0.06
4291 C 71.31056092462285 100.83901543985326 61.615174586303084 C 0.0 **** -0.24
4292 H 70.37599107349516 101.3971007142747 61.57203741318813 H 0.0 **** 0.06
4293 H 71.49987555220775 100.37283506571555 60.64866351315834 H 0.0 **** 0.06
4294 H 71.2388543074619 100.06917243974624 62.383315046479765 H 0.0 **** 0.06
4295 H 72.1283487078129 101.51896202734531 61.85721533019495 H 0.0 **** 0.06
4296 C 23.622929211403264 29.36327972770168 17.017721735658995 C 0.0 **** -0.24
4297 H 22.8777644282716 28.64315078578528 16.680319014524414 H 0.0 **** 0.06
4298 H 24.444211712109603 28.83612278582119 17.50320034004575 H 0.0 **** 0.06
4299 H 23.166048544938043 30.054138526073928 17.72584461271633 H 0.0 **** 0.06
4300 H 24.004322871299397 29.920760459047614 16.16082145343745 H 0.0 **** 0.06
4301 C 1.2678161832688204 97.17190418127898 33.840981212217855 C 0.0 **** -0.24
4302 H 1.0982790335674224 98.21130285876053 33.561039476117 H 0.0 **** 0.06
4303 H 1.9574098719473056 96.71317533769148 33.13230762003627 H 0.0 **** 0.06
4304 H 0.32064850323081373 96.63250244414114 33.828018864934336 H 0.0 **** 0.06
4305 H 1.695272114915781 97.13215179682012 34.84332301102074 H 0.0 **** 0.06
4306 C 16.22285685085955 90.84010873917536 49.46337794368239 C 0.0 **** -0.24
4307 H 17.29847108649401 90.68563360393188 49.38067794672048 H 0.0 **** 0.06
4308 H 15.706651575837881 90.1678221003813 48.77825559025803 H 0.0 **** 0.06
4309 H 15.984107220031095 91.87329687069116 49.20882181973286 H 0.0 **** 0.06
4310 H 15.903221869780104 90.63418112558058 50.48491852580432 H 0.0 **** 0.06
4311 C 88.14831508120618 42.69959520652333 71.69701741387264 C 0.0 **** -0.24
4312 H 89.18336415131054 42.993979067193834 71.5226601869739 H 0.0 **** 0.06
4313 H 88.00788769046477 41.66404697224755 71.38502393474337 H 0.0 **** 0.06
4314 H 87.48485722264999 43.34559439262097 71.12200212158409 H 0.0 **** 0.06
4315 H 87.91694149101146 42.79363804126797 72.75754889426105 H 0.0 **** 0.06
4316 C 71.38608265173212 1.8944339883937724 34.36270860156111 C 0.0 **** -0.24
4317 H 71.62323574142238 1.0038823924212172 33.782277695067705 H 0.0 **** 0.06
4318 H 70.41783635703081 1.765796400621026 34.84740272207648 H 0.0 **** 0.06
4319 H 71.3503440776762 2.7603923920697717 33.70132317308148 H 0.0 **** 0.06
4320 H 72.15475745868122 2.048553473822258 35.121177570743214 H 0.0 **** 0.06
4321 C 91.27233628488779 93.1935534798339 49.018562996772175 C 0.0 **** -0.24
4322 H 90.95235215413055 94.02026528519167 49.651908521828744 H 0.0 **** 0.06
4323 H 92.17777101417244 93.47615028128308 48.48022487770572 H 0.0 **** 0.06
4324 H 90.48335587684409 92.95768006792403 48.303852877948884 H 0.0 **** 0.06
4325 H 91.47528258324559 92.31867506656769 49.636660442275485 H 0.0 **** 0.06
4326 C 45.89734829410003 17.279475398112425 51.61524689473371 C 0.0 **** -0.24
4327 H 46.00538979045518 16.212459723755103 51.810271137797336 H 0.0 **** 0.06
4328 H 46.81603961222356 17.7953549487911 51.89694084678419 H 0.0 **** 0.06
4329 H 45.06532685724301 17.672910169172155 52.198714325068025 H 0.0 **** 0.06
4330 H 45.70285554103543 17.437383058022476 50.55367933596629 H 0.0 **** 0.06
4331 C 3.4933423870432705 39.81323279504727 10.241250043077118 C 0.0 **** -0.24
4332 H 3.835812054219872 39.992010325590115 11.260480627266691 H 0.0 **** 0.06
4333 H 4.337063631862691 39.88868360399948 9.554895523551133 H 0.0 **** 0.06
4334 H 2.740168373628336 40.55629414439409 9.97516790460012 H 0.0 **** 0.06
4335 H 3.05809502911994 38.81606000347705 10.174563977370683 H 0.0 **** 0.06
4336 C 84.43896491599355 68.1692304239574 3.3984422055060577 C 0.0 **** -0.24
4337 H 84.76774566430572 67.22899529937018 2.955741409964517 H 0.0 **** 0.06
4338 H 85.11224709724837 68.9700237559885 3.091670244411148 H 0.0 **** 0.06
4339 H 84.44676581575294 68.08155841166177 4.484098017905694 H 0.0 **** 0.06
4340 H 83.42756532584463 68.39494945635278 3.059671372027566 H 0.0 **** 0.06
4341 C 25.372126914034283 103.94850350662293 23.553915587808206 C 0.0 **** -0.24
4342 H 26.21005244918814 103.30509315329974 23.822479889361432 H 0.0 **** 0.06
4343 H 25.108459935771933 104.57440964034042 24.407082718394634 H 0.0 **** 0.06
4344 H 24.516124531569773 103.33366151112462 23.27541582742751 H 0.0 **** 0.06
4345 H 25.655235906674307 104.58126079529477 22.712406584076632 H 0.0 **** 0.06
4346 C 100.66669287283538 59.002571762607985 29.381133673029098 C 0.0 **** -0.24
4347 H 101.3633775161804 59.183419288726 30.199724869259278 H 0.0 **** 0.06
4348 H 99.73845685436548 58.59123839999952 29.77860776885614 H 0.0 **** 0.06
4349 H 101.10729024519186 58.29535788373183 28.678889189422677 H 0.0 **** 0.06
4350 H 100.45802399869433 59.94153575834085 28.868435148841698 H 0.0 **** 0.06
4351 C 79.2620527706967 56.3508713814075 43.47019283081667 C 0.0 **** -0.24
4352 H 78.20422173135358 56.08748432732739 43.465032374695994 H 0.0 **** 0.06
4353 H 79.56632311986743 56.6510967922527 42.46805308706924 H 0.0 **** 0.06
4354 H 79.84938663749892 55.48827606017045 43.78645403789959 H 0.0 **** 0.06
4355 H 79.42579718867569 57.176444291422115 44.16342370234847 H 0.0 **** 0.06
4356 C 90.80836399771562 99.71847838959965 97.60758154136076 C 0.0 **** -0.24
4357 H 91.00190375940085 100.6405318024993 97.05935464288211 H 0.0 **** 0.06
4358 H 91.54092977071576 99.61285665269453 98.40833078120465 H 0.0 **** 0.06
4359 H 90.88588576112 98.86898102211566 96.92948683505224 H 0.0 **** 0.06
4360 H 89.80551226218307 99.7535865381386 98.03363047702669 H 0.0 **** 0.06
4361 C 91.388427481864 84.46852378191771 55.1246706101507 C 0.0 **** -0.24
4362 H 91.14178734659295 83.40695524096897 55.12335799988958 H 0.0 **** 0.06
4363 H 91.78737686425484 84.74852518732293 54.14869542347353 H 0.0 **** 0.06
4364 H 92.13455615708422 84.66739516665699 55.89393456474036 H 0.0 **** 0.06
4365 H 90.48968629897144 85.04989435506171 55.33002005852663 H 0.0 **** 0.06
4366 C 53.444978759484044 56.119698720248664 109.0455240574745 C 0.0 **** -0.24
4367 H 52.89647228390482 57.0212145603582 108.77240557834659 H 0.0 **** 0.06
4368 H 52.79876590032936 55.46236191156186 109.62612207526206 H 0.0 **** 0.06
4369 H 54.31679726317694 56.39130440260948 109.6404246336127 H 0.0 **** 0.06
4370 H 53.769090840190984 55.6042126373913 108.14041554759268 H 0.0 **** 0.06
4371 C 33.02800626780231 84.90241448438182 0.6078874463249093 C 0.0 **** -0.24
4372 H 33.754864405044714 84.24951893492704 1.0921121473026831 H 0.0 **** 0.06
4373 H 33.33967727902143 85.09615524711589 -0.4186190442485085 H 0.0 **** 0.06
4374 H 32.96655934291363 85.84391744033486 1.1533939144332166 H 0.0 **** 0.06
4375 H 32.05076568645404 84.4187991220389 0.6064983582259309 H 0.0 **** 0.06
4376 C 65.06408494529984 68.86931231971016 9.722333619689806 C 0.0 **** -0.24
4377 H 64.38903289540303 69.15102095680123 8.914159850087174 H 0.0 **** 0.06
4378 H 64.81654674501414 69.4404702789027 10.61801959702926 H 0.0 **** 0.06
4379 H 66.09214491897717 69.08204968858189 9.427714529225014 H 0.0 **** 0.06
4380 H 64.95783766622179 67.80484882286385 9.929132543907684 H 0.0 **** 0.06
4381 C 45.87477976525946 65.69765000402194 87.59071959899637 C 0.0 **** -0.24
4382 H 45.905176519510746 65.64123737829465 88.67937867092951 H 0.0 **** 0.06
4383 H 45.17498114861229 66.47728499680295 87.28797863394436 H 0.0 **** 0.06
4384 H 45.547685945811395 64.73925634843192 87.1872135784698 H 0.0 **** 0.06
4385 H 46.86885935600395 65.93268435019388 87.2111613599115 H 0.0 **** 0.06
4386 C 86.5224236163034 41.35154903310647 11.560391830440125 C 0.0 **** -0.24
4387 H 86.67962925488678 42.08085401220384 10.766446340602556 H 0.0 **** 0.06
4388 H 87.4744060441871 41.13139901671737 12.044546084900503 H 0.0 **** 0.06
4389 H 86.11049957192773 40.43553024488497 11.135684782682176 H 0.0 **** 0.06
4390 H 85.82645870641394 41.75646557547473 12.2941685228881 H 0.0 **** 0.06
4391 C 8.361197032652996 23.952224029960348 60.8407172126673 C 0.0 **** -0.24
4392 H 7.799669163727529 24.72350970761937 61.36741702725146 H 0.0 **** 0.06
4393 H 7.714331453783117 23.094724134643457 60.654052433888495 H 0.0 **** 0.06
4394 H 9.210332947197173 23.641339996934278 61.44962623479887 H 0.0 **** 0.06
4395 H 8.721366681133773 24.350787830150296 59.8916304694346 H 0.0 **** 0.06
4396 C 48.05356053428784 63.84302431348928 106.59021459386497 C 0.0 **** -0.24
4397 H 47.61260172365421 64.03341932242513 105.61142403296134 H 0.0 **** 0.06
4398 H 49.040735047228694 63.39665944757684 106.46250457844452 H 0.0 **** 0.06
4399 H 47.41521638460773 63.158855287134585 107.14920417353014 H 0.0 **** 0.06
4400 H 48.14670160925925 64.78164162475869 107.1360947315213 H 0.0 **** 0.06
4401 C 20.955095133003226 58.739718586123104 109.32991320126033 C 0.0 **** -0.24
4402 H 20.6771795318283 59.793794487610484 109.2989320159008 H 0.0 **** 0.06
4403 H 21.95014380889171 58.613784857405335 108.90211682922025 H 0.0 **** 0.06
4404 H 20.235068861886532 58.15788467575783 108.75472599831346 H 0.0 **** 0.06
4405 H 20.957757080039528 58.39537241516797 110.36356664334177 H 0.0 **** 0.06
4406 C 23.524516492129692 78.71533623878281 106.23641577831673 C 0.0 **** -0.24
4407 H 23.87371074068335 78.84748696902199 105.21196789588672 H 0.0 **** 0.06
4408 H 24.166297393105708 77.99840476920343 106.74854799649506 H 0.0 **** 0.06
4409 H 22.499909297690408 78.34261729880197 106.22575794587658 H 0.0 **** 0.06
4410 H 23.55830748564773 79.67172180309021 106.75773589021905 H 0.0 **** 0.06
4411 C 23.801282746710182 4.114980650553292 49.667175963230875 C 0.0 **** -0.24
4412 H 22.75812145759053 4.077869723936095 49.9795701377742 H 0.0 **** 0.06
4413 H 23.966383221275127 5.001997421502004 49.05605002169921 H 0.0 **** 0.06
4414 H 24.03869347010172 3.223136108042251 49.08627805673842 H 0.0 **** 0.06
4415 H 24.44323590357256 4.155345615455714 50.54771427915415 H 0.0 **** 0.06
4416 C 74.15688163933119 8.630928370765076 17.537962751160364 C 0.0 **** -0.24
4417 H 74.71084474701733 9.538842928122278 17.77958015026212 H 0.0 **** 0.06
4418 H 74.59087826092826 7.787694151735877 18.075750695352554 H 0.0 **** 0.06
4419 H 74.21138865077359 8.44718841130151 16.46574570642059 H 0.0 **** 0.06
4420 H 73.11453720116532 8.752844430054097 17.83406485448745 H 0.0 **** 0.06
4421 C 0.13401904254135388 90.86366208356868 45.41705183851225 C 0.0 **** -0.24
4422 H 0.5375249664225805 91.76521460673868 45.879324420989256 H 0.0 **** 0.06
4423 H -0.39315855080565143 91.13111047708266 44.50072435628994 H 0.0 **** 0.06
4424 H -0.5576418697038719 90.38032489633181 46.10593218596155 H 0.0 **** 0.06
4425 H 0.9505698434611247 90.18052479226617 45.181161732092924 H 0.0 **** 0.06
4426 C 78.7429660660096 50.59165771532054 58.68697662524439 C 0.0 **** -0.24
4427 H 79.8198350557885 50.48207846358903 58.815625118613674 H 0.0 **** 0.06
4428 H 78.25941745242481 49.62634610968661 58.84271741875468 H 0.0 **** 0.06
4429 H 78.53209848282656 50.944877942857005 57.676927981752065 H 0.0 **** 0.06
4430 H 78.36156715367048 51.31167936614244 59.41036207559681 H 0.0 **** 0.06
4431 C 85.67923676328247 87.18467767002113 79.46250818107607 C 0.0 **** -0.24
4432 H 85.66638052608857 87.22486123712036 78.37333149173332 H 0.0 **** 0.06
4433 H 84.65608224833144 87.15426626290926 79.83609995085664 H 0.0 **** 0.06
4434 H 86.18265190624548 88.06872800801676 79.85193337773853 H 0.0 **** 0.06
4435 H 86.21214015560025 86.29040187240858 79.78649994716821 H 0.0 **** 0.06
4436 C 67.82619722637361 6.0633741048706895 39.27480508391176 C 0.0 **** -0.24
4437 H 68.6500967507491 5.588934144500342 39.80758753871021 H 0.0 **** 0.06
4438 H 67.32263736616963 6.768053989850429 39.93725631539485 H 0.0 **** 0.06
4439 H 67.11807533272498 5.3005647423883175 38.948832391150574 H 0.0 **** 0.06
4440 H 68.2133359168892 6.594061685599456 38.4053327388408 H 0.0 **** 0.06
4441 C 23.565452973969073 58.03928686281148 96.11257718978275 C 0.0 **** -0.24
4442 H 23.36684016363195 58.633844343058854 95.2204727945823 H 0.0 **** 0.06
4443 H 24.412424217614046 57.378806330800785 95.92645612914926 H 0.0 **** 0.06
4444 H 22.685063958115933 57.444611481429945 96.35589226560525 H 0.0 **** 0.06
4445 H 23.798461634365196 58.70234361970029 96.94607319572599 H 0.0 **** 0.06
4446 C 52.496565534276925 101.59976299565989 102.23070153920324 C 0.0 **** -0.24
4447 H 53.50902279377664 101.675836053507 102.62543940178142 H 0.0 **** 0.06
4448 H 52.527096366151284 101.16061317832356 101.2335149103773 H 0.0 **** 0.06
4449 H 52.0527789869634 102.59419864545416 102.17619339563288 H 0.0 **** 0.06
4450 H 51.89683926701625 100.96918864303777 102.88732797098343 H 0.0 **** 0.06
4451 C 20.542679314258624 4.108160335963618 81.36008226923263 C 0.0 **** -0.24
4452 H 20.215353294222496 3.138216458094007 80.98471651438865 H 0.0 **** 0.06
4453 H 19.743536539011593 4.556757043648162 81.9505707990744 H 0.0 **** 0.06
4454 H 20.784122567347726 4.759449959622344 80.51941830615948 H 0.0 **** 0.06
4455 H 21.42676552275925 3.9763176067490917 81.98307254583708 H 0.0 **** 0.06
4456 C 10.772781826370561 15.703373829069648 36.54908839952462 C 0.0 **** -0.24
4457 H 10.943561069192624 15.028462076157837 37.38753244500643 H 0.0 **** 0.06
4458 H 11.512192622010467 15.50954224227766 35.771206069821105 H 0.0 **** 0.06
4459 H 10.864910145979081 16.734987759431178 36.889108907667776 H 0.0 **** 0.06
4460 H 9.771908241570717 15.539840929282917 36.14919474328549 H 0.0 **** 0.06
4461 C 104.63428343799009 61.533083983798576 59.148923016443185 C 0.0 **** -0.24
4462 H 103.60563326127993 61.66115987795877 59.484045650211115 H 0.0 **** 0.06
4463 H 104.67689054960985 60.74456285827688 58.39707198761517 H 0.0 **** 0.06
4464 H 105.26222376474297 61.26004100130069 59.99753328245856 H 0.0 **** 0.06
4465 H 104.99516949206208 62.466937509783975 58.717387695549235 H 0.0 **** 0.06
4466 C 70.99075750076486 93.30814742957376 43.90427114083867 C 0.0 **** -0.24
4467 H 70.33825606578523 93.0833997700101 43.059536675708166 H 0.0 **** 0.06
4468 H 70.46312033925619 93.95175042228315 44.608134106368865 H 0.0 **** 0.06
4469 H 71.88598690856759 93.81571415693628 43.547751727540486 H 0.0 **** 0.06
4470 H 71.27267054119557 92.37957046313169 44.40104547470812 H 0.0 **** 0.06
4471 C 100.16731472033683 69.35792706856336 10.557962882208273 C 0.0 **** -0.24
4472 H 100.72515558817128 70.28235898209113 10.40868440452519 H 0.0 **** 0.06
4473 H 100.05447337883669 68.84309963124468 9.60349316610018 H 0.0 **** 0.06
4474 H 99.18295098541915 69.5895647845249 10.96475013535246 H 0.0 **** 0.06
4475 H 100.70627259501464 68.71672696956432 11.255836604575308 H 0.0 **** 0.06
4476 C 18.329854653297218 20.32116164873213 7.929789011799784 C 0.0 **** -0.24
4477 H 18.740346971887902 19.784188600195648 8.784987743162588 H 0.0 **** 0.06
4478 H 19.133779645323216 20.840441607270037 7.407480838963693 H 0.0 **** 0.06
4479 H 17.593144257666836 21.04536117399516 8.275560088721164 H 0.0 **** 0.06
4480 H 17.853166004194463 19.61276101390726 7.251740067420997 H 0.0 **** 0.06
4481 C 101.69455450873852 3.6160072076664136 101.42461586215893 C 0.0 **** -0.24
4482 H 101.38346583335735 4.245018046087978 100.5908364905223 H 0.0 **** 0.06
4483 H 102.77635076446995 3.6816424579230755 101.54516373188676 H 0.0 **** 0.06
4484 H 101.41313115292485 2.5818935424868528 101.22405983303314 H 0.0 **** 0.06
4485 H 101.20582671597646 3.954774843271025 102.33795560309979 H 0.0 **** 0.06
4486 C 41.92513375380378 68.52385083006533 73.19238939120942 C 0.0 **** -0.24
4487 H 41.140431634366166 68.0890472224412 72.57279896223753 H 0.0 **** 0.06
4488 H 41.90439045241578 68.06314434358336 74.18056759645549 H 0.0 **** 0.06
4489 H 41.75946108953508 69.59731353290687 73.28782154313035 H 0.0 **** 0.06
4490 H 42.89459504936087 68.34603964757588 72.7278844932369 H 0.0 **** 0.06
4491 C 103.67956749355022 27.08660465315313 23.05979471059959 C 0.0 **** -0.24
4492 H 103.07745346086361 26.24484569384478 23.402112425934547 H 0.0 **** 0.06
4493 H 104.37057485538259 27.38253299092719 23.850419912394443 H 0.0 **** 0.06
4494 H 103.02707565737536 27.9236173179697 22.814729451363803 H 0.0 **** 0.06
4495 H 104.24318872584674 26.793035248887776 22.17479814360118 H 0.0 **** 0.06
4496 C 13.478558670626654 53.32603313743312 106.43081992431114 C 0.0 **** -0.24
4497 H 13.810628449091297 53.63776821247319 105.44042365007766 H 0.0 **** 0.06
4498 H 13.85589513264 52.32513116281051 106.64188229967695 H 0.0 **** 0.06
4499 H 12.388740281601414 53.318543920122764 106.46168550610713 H 0.0 **** 0.06
4500 H 13.858712033674635 54.02290762538823 107.17791512695297 H 0.0 **** 0.06
4501 C 80.49682390368395 19.160514369647387 10.288025900121283 C 0.0 **** -0.24
4502 H 80.38850282846278 18.21585623002757 10.82196172174605 H 0.0 **** 0.06
4503 H 79.80096224945791 19.891526502270892 10.69894882674555 H 0.0 **** 0.06
4504 H 80.27976087002986 19.00567105964643 9.230958697435142 H 0.0 **** 0.06
4505 H 81.51715694713783 19.52598439152598 10.40000786990987 H 0.0 **** 0.06
4506 C 42.29749678042896 105.85405025305317 49.614721420840056 C 0.0 **** -0.24
4507 H 43.246023423846054 106.13560773502456 50.071068231027255 H 0.0 **** 0.06
4508 H 42.483427487367436 105.40478642582113 48.63858172474983 H 0.0 **** 0.06
4509 H 41.674520547621654 106.73962584148575 49.495221292810925 H 0.0 **** 0.06
4510 H 41.786803886639404 105.13411673581146 50.254357543505705 H 0.0 **** 0.06
4511 C 63.33090709173325 32.87224140664705 1.7612518128337342 C 0.0 **** -0.24
4512 H 63.954318727328456 32.94238121085968 2.6520711857505717 H 0.0 **** 0.06
4513 H 63.71469604601583 33.54693538255714 0.9957206491049533 H 0.0 **** 0.06
4514 H 62.30678600591446 33.15152624067542 2.0115095066211097 H 0.0 **** 0.06
4515 H 63.3467002639279 31.84879456418662 1.3862331318796919 H 0.0 **** 0.06
4516 C 91.73204830708059 14.474873474329222 54.29362983938046 C 0.0 **** -0.24
4517 H 92.64618966546702 14.092910319192782 53.83914376852323 H 0.0 **** 0.06
4518 H 91.74901993980484 14.277498311715284 55.36475205237514 H 0.0 **** 0.06
4519 H 90.86976356987333 13.979738910411822 53.84581769714566 H 0.0 **** 0.06
4520 H 91.66275918005128 15.548763924912397 54.12247160142783 H 0.0 **** 0.06
4521 C 64.41849938953337 105.95491215344748 96.85848598767909 C 0.0 **** -0.24
4522 H 63.38911416261911 106.30638458418483 96.93086736238259 H 0.0 **** 0.06
4523 H 65.0985790892173 106.76407437041584 97.12547661206771 H 0.0 **** 0.06
4524 H 64.62039350581202 105.63094462214409 95.8378902647692 H 0.0 **** 0.06
4525 H 64.56432347355283 105.11723389630464 97.54127760335948 H 0.0 **** 0.06
4526 C 3.3302654649888837 52.29022630308819 5.031871306549505 C 0.0 **** -0.24
4527 H 2.3752092953514534 51.76520361067671 5.052649999732154 H 0.0 **** 0.06
4528 H 3.1534977160474114 53.36565751598749 5.025568963682929 H 0.0 **** 0.06
4529 H 3.8805876317788375 52.00676771861205 4.135414645968368 H 0.0 **** 0.06
4530 H 3.9111214295667196 52.022317621407836 5.914666395749904 H 0.0 **** 0.06
4531 C 38.94155117099751 109.0330148050621 14.7991671813176 C 0.0 **** -0.24
4532 H 38.241140867700096 108.78320523760803 15.595797224323736 H 0.0 **** 0.06
4533 H 38.40944487909792 109.08014411889633 13.848953208954857 H 0.0 **** 0.06
4534 H 39.71728896764603 108.26993234062456 14.743896593178789 H 0.0 **** 0.06
4535 H 39.39901311724748 110.00079645626101 15.008698061083663 H 0.0 **** 0.06
4536 C 20.467514162842917 33.83252959854809 87.15011410822464 C 0.0 **** -0.24
4537 H 20.330923720647803 34.83032445222479 86.73182186616192 H 0.0 **** 0.06
4538 H 21.11281587062021 33.89211198309086 88.02747810876973 H 0.0 **** 0.06
4539 H 20.926484091001868 33.18506523757128 86.40330399568379 H 0.0 **** 0.06
4540 H 19.498207057247072 33.42481389205847 87.4385799564027 H 0.0 **** 0.06
4541 C 86.25718788895665 12.738531718191837 22.52497032821725 C 0.0 **** -0.24
4542 H 85.27688812088411 13.116773414955105 22.815188273413696 H 0.0 **** 0.06
4543 H 86.15616914147478 12.109586814438728 21.64063816775547 H 0.0 **** 0.06
4544 H 86.67681639103063 12.152319074871173 23.34241177109169 H 0.0 **** 0.06
4545 H 86.91816308551262 13.57607798095404 22.301945865287337 H 0.0 **** 0.06
4546 C 20.67722717383998 14.220479716124999 63.10568793094279 C 0.0 **** -0.24
4547 H 20.09067426541702 14.119375424914267 62.19215495055954 H 0.0 **** 0.06
4548 H 21.328524260020743 15.090279551292667 63.0246683281552 H 0.0 **** 0.06
4549 H 21.281919708201485 13.325234484461873 63.249739191877836 H 0.0 **** 0.06
4550 H 20.006008980918068 14.345957317879936 63.9553663281545 H 0.0 **** 0.06
4551 C 61.74249114036661 4.46031841402106 92.63341803082473 C 0.0 **** -0.24
4552 H 62.755350171384976 4.340951681131003 93.01736203984993 H 0.0 **** 0.06
4553 H 61.286944540482864 5.344734670184266 93.080691020187 H 0.0 **** 0.06
4554 H 61.15155519506743 3.5798781779217848 92.88739756022689 H 0.0 **** 0.06
4555 H 61.77497365470208 4.576711070281135 91.54986298909289 H 0.0 **** 0.06
4556 C 48.013884206497266 83.93175600872547 78.65421818193161 C 0.0 **** -0.24
4557 H 48.16384161788716 83.85005024690037 79.73113314911188 H 0.0 **** 0.06
4558 H 48.68215009141619 84.69321463686686 78.25218046658286 H 0.0 **** 0.06
4559 H 46.9799184546045 84.21006417407938 78.45241082097097 H 0.0 **** 0.06
4560 H 48.23040040896478 82.97223371999553 78.18450488713671 H 0.0 **** 0.06
4561 C 62.22581775544651 7.271575814951959 62.88287564425764 C 0.0 **** -0.24
4562 H 61.92565184375309 7.7478573967788265 63.81657590407295 H 0.0 **** 0.06
4563 H 62.12893624939517 7.985129598960242 62.06432640474901 H 0.0 **** 0.06
4564 H 61.58536624659919 6.410275461313617 62.6924539080845 H 0.0 **** 0.06
4565 H 63.263042643474876 6.944866250254293 62.95940845838709 H 0.0 **** 0.06
4566 C 24.498297540645837 40.659731767246505 61.59208103864444 C 0.0 **** -0.24
4567 H 25.57728773674748 40.80741090986028 61.55721202097834 H 0.0 **** 0.06
4568 H 24.03968947202881 41.13472236405764 60.72389297478824 H 0.0 **** 0.06
4569 H 24.099591271166005 41.10475840418423 62.50339516506503 H 0.0 **** 0.06
4570 H 24.277676734662975 39.592617686796544 61.58194036840314 H 0.0 **** 0.06
4571 C 47.90100276408495 61.56002563527676 39.79537801585616 C 0.0 **** -0.24
4572 H 47.40005384546242 62.521355985470905 39.68310164833787 H 0.0 **** 0.06
4573 H 47.68253433348423 60.934352834474055 38.92913900325482 H 0.0 **** 0.06
4574 H 47.54307611262183 61.067318419930245 40.698971363721796 H 0.0 **** 0.06
4575 H 48.977437080255356 61.718247145787075 39.86835080423123 H 0.0 **** 0.06
4576 C 19.579571089974216 7.102960759741791 100.53593127312513 C 0.0 **** -0.24
4577 H 20.240237158210814 6.26045588352099 100.7387728622395 H 0.0 **** 0.06
4578 H 20.057839770412944 8.027105124191621 100.86080838452773 H 0.0 **** 0.06
4579 H 18.643583934638233 6.968319216048826 101.07797606707419 H 0.0 **** 0.06
4580 H 19.375719335837942 7.155210117452384 99.46695265982044 H 0.0 **** 0.06
4581 C 75.05157168058682 32.23332088603644 84.46164376999067 C 0.0 **** -0.24
4582 H 74.47356265649012 31.35152190575019 84.187149807081 H 0.0 **** 0.06
4583 H 75.42486793189283 32.71768287777695 83.55830533622517 H 0.0 **** 0.06
4584 H 75.89270683761151 31.936059747192985 85.08820210198672 H 0.0 **** 0.06
4585 H 74.41584708950006 32.92825390041435 85.01105823497835 H 0.0 **** 0.06
4586 C 42.400375782222284 61.82136393856064 80.30364769359515 C 0.0 **** -0.24
4587 H 42.85993049087142 62.50238023497451 81.01942985195868 H 0.0 **** 0.06
4588 H 42.046717967007226 62.386952947181044 79.44113559193781 H 0.0 **** 0.06
4589 H 41.558818124591824 61.31226218065012 80.77479208297542 H 0.0 **** 0.06
4590 H 43.134798387925684 61.085423634143524 79.97908016592298 H 0.0 **** 0.06
4591 C 51.97321945095518 1.622731041090347 73.83242173498103 C 0.0 **** -0.24
4592 H 51.24037162288433 2.297217217412225 74.27554963404086 H 0.0 **** 0.06
4593 H 51.599225699355536 0.6004829602831734 73.87805440995186 H 0.0 **** 0.06
4594 H 52.91071164644046 1.6928905905934784 74.38498660524105 H 0.0 **** 0.06
4595 H 52.142357538658786 1.9029659232175646 72.7925195266317 H 0.0 **** 0.06
4596 C 35.275642532945966 9.085376209056903 42.072713569396115 C 0.0 **** -0.24
4597 H 35.83276929302309 9.942035918953025 41.69379436327506 H 0.0 **** 0.06
4598 H 34.7330465253209 9.374002889226233 42.97278860119491 H 0.0 **** 0.06
4599 H 35.96809251831519 8.27750499511609 42.30910514894873 H 0.0 **** 0.06
4600 H 34.56930745852213 8.748121440328987 41.3144195465992 H 0.0 **** 0.06
4601 C 25.225369096409025 11.733368793234519 64.27560034187982 C 0.0 **** -0.24
4602 H 25.98902059955543 11.203524147166803 63.70604445740622 H 0.0 **** 0.06
4603 H 25.52674001683056 11.788861417246324 65.32193395542026 H 0.0 **** 0.06
4604 H 24.27855446980314 11.198817284602598 64.19829177425254 H 0.0 **** 0.06
4605 H 25.1076559512897 12.740104485772662 63.877158845069914 H 0.0 **** 0.06
4606 C 58.10788049853704 7.440948080219471 29.6528521042179 C 0.0 **** -0.24
4607 H 57.117361830497885 7.126296857203954 29.323006260687066 H 0.0 **** 0.06
4608 H 58.10002488441222 8.51089824693355 29.85903832346652 H 0.0 **** 0.06
4609 H 58.8355129449063 7.225862542113731 28.87047746015938 H 0.0 **** 0.06
4610 H 58.37745523519692 6.897473689228434 30.55895306887888 H 0.0 **** 0.06
4611 C 14.064131159382981 37.911300262826956 108.25060460045307 C 0.0 **** -0.24
4612 H 14.891249472139478 37.230311290588645 108.4508024330126 H 0.0 **** 0.06
4613 H 13.187819233489137 37.59442136425855 108.81718919030777 H 0.0 **** 0.06
4614 H 13.83323642404737 37.897388390634205 107.18513288533393 H 0.0 **** 0.06
4615 H 14.344542063766852 38.92077306291816 108.54853608752273 H 0.0 **** 0.06
4616 C 6.6660977226976 100.68271175339925 92.50529525368161 C 0.0 **** -0.24
4617 H 6.297408108560376 101.68948612404732 92.30945555562718 H 0.0 **** 0.06
4618 H 5.915304976333886 100.12524391701736 93.06636992280285 H 0.0 **** 0.06
4619 H 7.585997226835076 100.74032488548197 93.08549728472401 H 0.0 **** 0.06
4620 H 6.863195646493892 100.17747242998537 91.5599030139939 H 0.0 **** 0.06
4621 C 82.82967954189081 61.664516394022314 9.037342451312227 C 0.0 **** -0.24
4622 H 81.92257994548618 62.16298545689165 9.378767065933019 H 0.0 **** 0.06
4623 H 83.20355742191921 62.16362494383276 8.14232404854475 H 0.0 **** 0.06
4624 H 82.60726889229011 60.62232659540234 8.807371126447421 H 0.0 **** 0.06
4625 H 83.58565736808009 61.71024298784829 9.821706846125608 H 0.0 **** 0.06
4626 C 89.63385366994865 26.60202527452017 20.398033898614813 C 0.0 **** -0.24
4627 H 89.21788951964105 26.77335731297773 19.40514567388425 H 0.0 **** 0.06
4628 H 89.28248055935201 27.379973583775467 21.077711288065814 H 0.0 **** 0.06
4629 H 90.72224059409567 26.62904679231842 20.346715318250688 H 0.0 **** 0.06
4630 H 89.31094724115387 25.626567617054885 20.763479819682942 H 0.0 **** 0.06
4631 C 99.76627354077223 42.08217877522418 48.01952332237036 C 0.0 **** -0.24
4632 H 100.58458361737328 41.39390515551389 47.804281633850934 H 0.0 **** 0.06
4633 H 98.98515043005834 41.96215007253028 47.26871731010027 H 0.0 **** 0.06
4634 H 100.13795460340472 43.106270388736164 47.99785808890371 H 0.0 **** 0.06
4635 H 99.35897689937765 41.86410365221303 49.00609338264783 H 0.0 **** 0.06
4636 C 94.42296310782703 62.961924414460356 26.538802655973058 C 0.0 **** -0.24
4637 H 95.50692507842919 63.03529649100942 26.62713640288868 H 0.0 **** 0.06
4638 H 94.0635289007343 63.71804286105993 25.84140695229388 H 0.0 **** 0.06
4639 H 93.9670480365727 63.12175415485454 27.515495405555157 H 0.0 **** 0.06
4640 H 94.15550563356162 61.97138166392628 26.17158556061932 H 0.0 **** 0.06
4641 C 24.903162321078128 104.4882180672837 88.83894156093668 C 0.0 **** -0.24
4642 H 24.775035123071888 105.2203913995479 89.63722132227144 H 0.0 **** 0.06
4643 H 24.62099892018034 104.93727814740761 87.88666863651547 H 0.0 **** 0.06
4644 H 24.269782848071316 103.62373890718193 89.0353086566993 H 0.0 **** 0.06
4645 H 25.94579839948247 104.17385041545737 88.7992575519254 H 0.0 **** 0.06
4646 C 30.28623404880487 6.259497860960479 59.70858123585239 C 0.0 **** -0.24
4647 H 29.8334503670155 6.040006557223165 58.74156604538476 H 0.0 **** 0.06
4648 H 30.577337947582038 7.309121500119957 59.74405770850504 H 0.0 **** 0.06
4649 H 31.167792710556228 5.632235404312269 59.84688915493541 H 0.0 **** 0.06
4650 H 29.566726264860193 6.053712898651568 60.501207863617424 H 0.0 **** 0.06
4651 C 88.53528611344854 89.35505300557142 7.779993323328995 C 0.0 **** -0.24
4652 H 88.59109306896536 88.38975249272232 8.283877637863185 H 0.0 **** 0.06
4653 H 89.459811385047 89.90762391667033 7.95138276515172 H 0.0 **** 0.06
4654 H 87.69326908575249 89.92302612676605 8.17684943135265 H 0.0 **** 0.06
4655 H 88.3977869100276 89.19958228940857 6.710910265086966 H 0.0 **** 0.06
4656 C 58.32213363940559 84.68187796848343 37.10318181288093 C 0.0 **** -0.24
4657 H 58.99802687504132 84.70273159839465 36.24850216195705 H 0.0 **** 0.06
4658 H 58.349162987412285 83.69377625528917 37.56378721674159 H 0.0 **** 0.06
4659 H 57.306958527833046 84.9000556362893 36.76903372089606 H 0.0 **** 0.06
4660 H 58.63299516411007 85.43114897095941 37.83156218349092 H 0.0 **** 0.06
4661 C 12.429029000681709 20.352328417880585 69.66878019116211 C 0.0 **** -0.24
4662 H 12.463352894217081 19.296890753172733 69.93730584448446 H 0.0 **** 0.06
4663 H 12.89193224725662 20.493539986879057 68.69129729145544 H 0.0 **** 0.06
4664 H 12.96945095005293 20.934442650529917 70.41447915488203 H 0.0 **** 0.06
4665 H 11.391536364871968 20.68313599296195 69.6302288874511 H 0.0 **** 0.06
4666 C 63.2802217253772 86.69682858269985 53.8484687237293 C 0.0 **** -0.24
4667 H 62.96335631841302 85.9592557772746 53.11132591615737 H 0.0 **** 0.06
4668 H 62.777931596899776 87.64505200397238 53.653356186065054 H 0.0 **** 0.06
4669 H 64.35916676639755 86.83713009543278 53.78149890443589 H 0.0 **** 0.06
4670 H 63.01984219842552 86.34715420939261 54.84755490864163 H 0.0 **** 0.06
4671 C 21.07578759688863 3.343414221335081 109.4312352719353 C 0.0 **** -0.24
4672 H 21.554487099064147 2.3734030450484056 109.55942610163275 H 0.0 **** 0.06
4673 H 19.998484375825512 3.236670549964316 109.55864181458766 H 0.0 **** 0.06
4674 H 21.288779451445407 3.7244450936241265 108.43255624539958 H 0.0 **** 0.06
4675 H 21.462451202763816 4.040658563488094 110.17557492941854 H 0.0 **** 0.06
4676 C 80.26570668828487 22.341320152971093 92.92492345396127 C 0.0 **** -0.24
4677 H 80.15467626193087 22.967262231054008 93.80952141372528 H 0.0 **** 0.06
4678 H 80.95082564126507 21.522234789766458 93.14308633015497 H 0.0 **** 0.06
4679 H 80.66271926927408 22.93843205301812 92.10424371642634 H 0.0 **** 0.06
4680 H 79.29354851339339 21.936851082578528 92.64156473989262 H 0.0 **** 0.06
4681 C 3.3297481511738596 20.939384964759967 99.27894815051701 C 0.0 **** -0.24
4682 H 3.7127922890769867 21.77637593170661 99.86280444798155 H 0.0 **** 0.06
4683 H 3.5795951453822 20.00272986853716 99.77896980609728 H 0.0 **** 0.06
4684 H 3.7792323261530925 20.953441565363562 98.28623961725913 H 0.0 **** 0.06
4685 H 2.2469399089492015 21.02597082253226 99.18870368393715 H 0.0 **** 0.06
4686 C 25.07782990206499 66.10422325272995 64.8197524805841 C 0.0 **** -0.24
4687 H 25.578714223440556 66.90871226198388 65.35786415263203 H 0.0 **** 0.06
4688 H 24.69816458862195 66.48380337564885 63.8705364358197 H 0.0 **** 0.06
4689 H 24.24783582207027 65.72818471407038 65.41925126022824 H 0.0 **** 0.06
4690 H 25.784688757901648 65.29656711574688 64.63244809449009 H 0.0 **** 0.06
4691 C 70.69991560118414 68.2317704085458 22.006303650105025 C 0.0 **** -0.24
4692 H 69.64450541131448 68.47298923672601 21.878453396860074 H 0.0 **** 0.06
4693 H 70.83732118934432 67.68983792919362 22.942148599383586 H 0.0 **** 0.06
4694 H 71.28276419357734 69.15194136119268 22.029298057458945 H 0.0 **** 0.06
4695 H 71.03374859527129 67.61078513696273 21.17435789328718 H 0.0 **** 0.06
4696 C 65.70857831697916 40.97514671834796 61.545982057396145 C 0.0 **** -0.24
4697 H 66.76280463708216 40.738110724825106 61.40070750383393 H 0.0 **** 0.06
4698 H 65.15063627879402 40.71167221197851 60.64696939261438 H 0.0 **** 0.06
4699 H 65.60016682217801 42.04111180554429 61.74294190317994 H 0.0 **** 0.06
4700 H 65.32292217677463 40.40722680528552 62.39321356346926 H 0.0 **** 0.06
4701 C 23.935814966666868 41.00561847737856 50.402618098478 C 0.0 **** -0.24
4702 H 23.520238510161334 41.40873029103955 51.32618127512234 H 0.0 **** 0.06
4703 H 23.669489826183025 39.95199531694408 50.31531376334556 H 0.0 **** 0.06
4704 H 25.021487938657515 41.10595678855671 50.41782757736655 H 0.0 **** 0.06
4705 H 23.531325999696804 41.55485238720303 49.552415974425685 H 0.0 **** 0.06
4706 C 52.784285717818925 15.391490239040508 77.08542242370407 C 0.0 **** -0.24
4707 H 51.95160403814544 14.800810787814129 77.46699791766764 H 0.0 **** 0.06
4708 H 52.87686452571302 16.307421529210586 77.66969970198248 H 0.0 **** 0.06
4709 H 52.602117920898564 15.642716837404208 76.04038416203524 H 0.0 **** 0.06
4710 H 53.70543423164055 14.814310287170883 77.1651066563925 H 0.0 **** 0.06
4711 C 11.787428218822129 44.82651149514073 76.22861367146788 C 0.0 **** -0.24
4712 H 11.064414765737695 44.08147809661199 76.55986375476618 H 0.0 **** 0.06
4713 H 12.724357637213018 44.689530600346224 76.76792094061838 H 0.0 **** 0.06
4714 H 11.396452037218921 45.824782847395284 76.42675963818971 H 0.0 **** 0.06
4715 H 11.963033125825234 44.71161607704381 75.15848616608241 H 0.0 **** 0.06
4716 C 39.28481495575858 50.32539910103182 30.999066312421633 C 0.0 **** -0.24
4717 H 39.2368154489985 51.4074100216057 30.87857875289268 H 0.0 **** 0.06
4718 H 40.27747427602833 49.971921260660025 30.7184530533591 H 0.0 **** 0.06
4719 H 38.53670091711879 49.85573064489404 30.359533789854197 H 0.0 **** 0.06
4720 H 39.08775197529357 50.06650224810451 32.03884437045815 H 0.0 **** 0.06
4721 C 70.72501691651843 94.04506419356804 84.9911786470951 C 0.0 **** -0.24
4722 H 71.00374973107625 95.0956123532365 84.91415005026909 H 0.0 **** 0.06
4723 H 71.61865847617358 93.4250267851439 84.90914011314106 H 0.0 **** 0.06
4724 H 70.03238511008342 93.7932039835988 84.1889197027746 H 0.0 **** 0.06
4725 H 70.24645504959312 93.86590873677312 85.95459069992592 H 0.0 **** 0.06
4726 C 79.01318027800153 74.14288380468736 20.28546571184257 C 0.0 **** -0.24
4727 H 78.21533705417073 73.45750166065625 20.569577162896486 H 0.0 **** 0.06
4728 H 78.5996719449239 74.95025424664871 19.680670939593004 H 0.0 **** 0.06
4729 H 79.76548168895829 73.60552213357653 19.707618058384597 H 0.0 **** 0.06
4730 H 79.47209190011853 74.55851615553158 21.182613270141633 H 0.0 **** 0.06
4731 C 90.47109446475864 94.86084205062244 25.00291630476272 C 0.0 **** -0.24
4732 H 90.32766985637909 93.78729428538712 25.122667742253398 H 0.0 **** 0.06
4733 H 91.52479680912784 95.06783394952292 24.81585324641236 H 0.0 **** 0.06
4734 H 90.15477032650372 95.37277969442054 25.911717575497207 H 0.0 **** 0.06
4735 H 89.87595265832931 95.21467530816511 24.160440683947172 H 0.0 **** 0.06
4736 C 67.38533572933281 32.783928990600685 98.16012955063161 C 0.0 **** -0.24
4737 H 67.42597448259193 31.984928804308666 97.41967829079765 H 0.0 **** 0.06
4738 H 66.34811399304493 33.08572027139887 98.3123433926793 H 0.0 **** 0.06
4739 H 67.96403426105405 33.63696774991577 97.80586729445011 H 0.0 **** 0.06
4740 H 67.80226205995447 32.427237460607515 99.1020464570475 H 0.0 **** 0.06
4741 C 65.1571954596659 13.871963101930316 73.91118197891551 C 0.0 **** -0.24
4742 H 65.37115166495795 14.458811214680725 74.8038666075233 H 0.0 **** 0.06
4743 H 65.72930322353415 14.266081219073385 73.07111026043285 H 0.0 **** 0.06
4744 H 64.09290646196928 13.929366788988542 73.68467685711569 H 0.0 **** 0.06
4745 H 65.43664091224025 12.832146981277607 74.08388284355632 H 0.0 **** 0.06
4746 C 76.58665701946778 32.9809001216847 12.862385673231714 C 0.0 **** -0.24
4747 H 76.81686225645302 32.19719233128899 12.140269658804783 H 0.0 **** 0.06
4748 H 75.6362190803574 32.7603193589037 13.348555115431225 H 0.0 **** 0.06
4749 H 76.51824696262793 33.93988765996181 12.348079474733325 H 0.0 **** 0.06
4750 H 77.37684372784474 33.02752116374441 13.611703566296413 H 0.0 **** 0.06
4751 C 0.8779883529900916 102.4154831012098 22.04791082180526 C 0.0 **** -0.24
4752 H 0.8495076064105529 101.32815940527489 22.111163017366266 H 0.0 **** 0.06
4753 H 1.90870559652054 102.75755999289564 22.137873019095167 H 0.0 **** 0.06
4754 H 0.28162490934915496 102.84261487811798 22.855345059135914 H 0.0 **** 0.06
4755 H 0.4704935658263798 102.73399709907702 21.088362646081094 H 0.0 **** 0.06
4756 C 70.09519945622431 31.680339889912716 51.25411436032692 C 0.0 **** -0.24
4757 H 70.35493591314498 30.876913287888044 51.944739165471276 H 0.0 **** 0.06
4758 H 70.46667211807222 31.4386131241489 50.25888170584216 H 0.0 **** 0.06
4759 H 70.54714110790022 32.612189313750605 51.596011021241736 H 0.0 **** 0.06
4760 H 69.0117460671636 31.793768487397813 51.220416304602224 H 0.0 **** 0.06
4761 C 49.96027219095254 93.62320219983307 85.6958372833872 C 0.0 **** -0.24
4762 H 49.35284933133582 93.74900088061074 86.5917798011035 H 0.0 **** 0.06
4763 H 49.328142137778684 93.29251232506269 84.87159297685646 H 0.0 **** 0.06
4764 H 50.73280301447397 92.87714317771201 85.88265788135821 H 0.0 **** 0.06
4765 H 50.427117244691544 94.57282724625924 85.43777964969868 H 0.0 **** 0.06
4766 C 78.98317272043887 16.831598997634146 81.84404643961034 C 0.0 **** -0.24
4767 H 79.29061298527087 15.935908024863924 81.30306021534227 H 0.0 **** 0.06
4768 H 79.72252592888307 17.617803723801817 81.69505392827728 H 0.0 **** 0.06
4769 H 78.90284527572392 16.60310064407433 82.90668271574447 H 0.0 **** 0.06
4770 H 78.01565598324639 17.16701548671154 81.47084007014405 H 0.0 **** 0.06
4771 C 28.121154033655188 68.78135377925497 62.76065686122115 C 0.0 **** -0.24
4772 H 27.092262390108203 68.98468943707451 63.056197755274695 H 0.0 **** 0.06
4773 H 28.12454137166074 68.16153396981045 61.86372218037832 H 0.0 **** 0.06
4774 H 28.633776835261358 68.25788431774151 63.566869230256145 H 0.0 **** 0.06
4775 H 28.631790308686192 69.72175063298494 62.554964904929875 H 0.0 **** 0.06
4776 C 96.06817569866352 100.94500648055504 77.86978945934686 C 0.0 **** -0.24
4777 H 96.23771092007333 100.29800603792637 78.73054326068774 H 0.0 **** 0.06
4778 H 95.61055194814703 100.36770862034885 77.06522458207124 H 0.0 **** 0.06
4779 H 97.01962783285853 101.35274688950216 77.52792622277548 H 0.0 **** 0.06
4780 H 95.40398063682933 101.76193251456607 78.153989559803 H 0.0 **** 0.06
4781 C 69.00702097672793 80.67252651257496 58.345187917175 C 0.0 **** -0.24
4782 H 68.87888178399766 81.720310160027 58.619870859737574 H 0.0 **** 0.06
4783 H 68.98377732396492 80.57736210154786 57.259746387277175 H 0.0 **** 0.06
4784 H 68.20067645280395 80.08266605019514 58.78017753699828 H 0.0 **** 0.06
4785 H 69.96523951204087 80.31392569771882 58.721643196045136 H 0.0 **** 0.06
4786 C 47.99031035725221 62.569085939008176 44.97563943457925 C 0.0 **** -0.24
4787 H 48.025442389910324 63.145230475644766 44.05037939815787 H 0.0 **** 0.06
4788 H 48.72035880028068 61.76018436052536 44.927312981502126 H 0.0 **** 0.06
4789 H 46.992036889460564 62.15010830096304 45.10468484317312 H 0.0 **** 0.06
4790 H 48.223285105323896 63.22036518638289 45.81823660248253 H 0.0 **** 0.06
4791 C 26.96656890183496 37.08847698826639 70.49489121047603 C 0.0 **** -0.24
4792 H 27.5153172338226 37.87019813868909 69.96861065028885 H 0.0 **** 0.06
4793 H 26.491238245846006 37.51215769738303 71.38050984730256 H 0.0 **** 0.06
4794 H 27.65635808100751 36.29961862423892 70.79532796975904 H 0.0 **** 0.06
4795 H 26.20372072666015 36.67353294817815 69.83626236285768 H 0.0 **** 0.06
4796 C 18.046661189745777 82.49677146211287 103.22328479087112 C 0.0 **** -0.24
4797 H 18.79748944001102 83.13686473708137 102.76031029192183 H 0.0 **** 0.06
4798 H 17.859428747309295 82.83495212926239 104.24305671358069 H 0.0 **** 0.06
4799 H 18.407032955878464 81.46906838302782 103.24167906701099 H 0.0 **** 0.06
4800 H 17.12207769148324 82.54823884816875 102.64877604458653 H 0.0 **** 0.06
4801 C 79.13216155152156 27.03917254188849 24.149742975459247 C 0.0 **** -0.24
4802 H 79.95084996083733 27.69147085078464 24.45226574558174 H 0.0 **** 0.06
4803 H 79.5207924504935 26.042875457647796 23.93720581900422 H 0.0 **** 0.06
4804 H 78.6575507522972 27.44240359259379 23.254950154593274 H 0.0 **** 0.06
4805 H 78.39886587599113 26.979857925115482 24.953744884589725 H 0.0 **** 0.06
4806 C 82.9446064788351 40.35683251620139 51.84918519870964 C 0.0 **** -0.24
4807 H 82.64767872347349 41.29518305386864 52.31926723017441 H 0.0 **** 0.06
4808 H 82.42546705589852 39.52859031630928 52.33265188536848 H 0.0 **** 0.06
4809 H 84.02112998500212 40.22341473940125 51.955508743356 H 0.0 **** 0.06
4810 H 82.68402164549765 40.38287390353993 50.79166252927962 H 0.0 **** 0.06
4811 C 93.46934908471532 17.610380732173013 90.47895647687275 C 0.0 **** -0.24
4812 H 92.53388109555473 17.326685838697273 89.99787367884332 H 0.0 **** 0.06
4813 H 94.30096691273036 17.4151920506542 89.8017171972781 H 0.0 **** 0.06
4814 H 93.59987068635517 17.028826087109152 91.39122131684316 H 0.0 **** 0.06
4815 H 93.44395459252449 18.671721126121668 90.72575912309952 H 0.0 **** 0.06
4816 C 47.60347008226685 25.149902582000493 80.81869965309609 C 0.0 **** -0.24
4817 H 48.082241166157104 25.40566848809334 79.87295657927882 H 0.0 **** 0.06
4818 H 48.354002648906715 24.776320151041688 81.51582369787245 H 0.0 **** 0.06
4819 H 46.85088117156374 24.37961508847721 80.64800691713123 H 0.0 **** 0.06
4820 H 47.12808550369789 26.03691896026052 81.2365803493721 H 0.0 **** 0.06
4821 C 65.6566828710101 21.36918059476426 25.969605437035998 C 0.0 **** -0.24
4822 H 65.13580519662241 20.471851432010965 26.30480645657059 H 0.0 **** 0.06
4823 H 66.66437354274433 21.382308208753557 26.38662595134887 H 0.0 **** 0.06
4824 H 65.11262842432794 22.251507839035582 26.306768987895055 H 0.0 **** 0.06
4825 H 65.71306325173609 21.371486755254608 24.88048888685758 H 0.0 **** 0.06
4826 C 106.8048864312013 94.24131877257292 44.55008991989172 C 0.0 **** -0.24
4827 H 106.0268575702125 94.72741233748037 45.13926479434116 H 0.0 **** 0.06
4828 H 107.03446009712134 93.26804699293056 44.98604626311527 H 0.0 **** 0.06
4829 H 107.70149029605477 94.86074537472174 44.54991127999631 H 0.0 **** 0.06
4830 H 106.45532248265124 94.10752066099509 43.52640052789286 H 0.0 **** 0.06
4831 C 47.00354977097203 81.68428572584301 100.83240991321217 C 0.0 **** -0.24
4832 H 46.84031217484514 80.64098054929114 100.56153784191557 H 0.0 **** 0.06
4833 H 47.91478713610806 82.0447233635243 100.35490384425437 H 0.0 **** 0.06
4834 H 47.10227659849576 81.76709602962659 101.91482588533519 H 0.0 **** 0.06
4835 H 46.156257733494556 82.28291130180855 100.49757786642465 H 0.0 **** 0.06
4836 C 60.66675578050018 41.922151610899476 40.711933751770715 C 0.0 **** -0.24
4837 H 61.18701025079821 42.28869682888205 39.827415963690385 H 0.0 **** 0.06
4838 H 59.618417358982526 41.74578890905687 40.46815785855222 H 0.0 **** 0.06
4839 H 60.73540191325009 42.664341453404504 41.50741714055218 H 0.0 **** 0.06
4840 H 61.12490730203797 40.99059657468658 41.04344881364048 H 0.0 **** 0.06
4841 C 20.624982695445667 53.624080268351264 21.410163283578925 C 0.0 **** -0.24
4842 H 21.444914035547427 53.74766336162878 22.11810728682525 H 0.0 **** 0.06
4843 H 19.75793708096053 54.187074459995415 21.75774547144522 H 0.0 **** 0.06
4844 H 20.3676015123402 52.56824681509261 21.334193260528025 H 0.0 **** 0.06
4845 H 20.931912197038628 53.99572701044906 20.431773833348643 H 0.0 **** 0.06
4846 C 54.87415109528379 66.42886465622735 75.64594826176636 C 0.0 **** -0.24
4847 H 54.97604191452575 67.47958595595198 75.91842560259585 H 0.0 **** 0.06
4848 H 53.897492576649825 66.26396192762414 75.1914836689096 H 0.0 **** 0.06
4849 H 54.96819233196692 65.8118885611093 76.54008284372748 H 0.0 **** 0.06
4850 H 55.656362359690206 66.16079914375113 74.93528145178516 H 0.0 **** 0.06
4851 C 7.6103981463867 42.51209437272262 83.59296591923095 C 0.0 **** -0.24
4852 H 6.530071843269482 42.609198268262965 83.48813869530545 H 0.0 **** 0.06
4853 H 7.852629728006434 42.24517933913469 84.62243091090255 H 0.0 **** 0.06
4854 H 8.086615913315669 43.4599069780863 83.34075410619775 H 0.0 **** 0.06
4855 H 7.972275100955358 41.73409290540655 82.92053996451824 H 0.0 **** 0.06
4856 C 43.50782514875041 73.98021034299848 11.5288874590982 C 0.0 **** -0.24
4857 H 42.42299685376358 74.0318787422824 11.630779065691456 H 0.0 **** 0.06
4858 H 43.94502911750172 74.93622636669193 11.815798389969245 H 0.0 **** 0.06
4859 H 43.764380681184235 73.75806346225465 10.493071894163222 H 0.0 **** 0.06
4860 H 43.895324306604266 73.19355573102337 12.176003190235235 H 0.0 **** 0.06
4861 C 45.71403051713105 23.352461899135307 28.66922121009172 C 0.0 **** -0.24
4862 H 44.73657867682647 23.71851736021418 28.354139964244382 H 0.0 **** 0.06
4863 H 45.58340765869809 22.52624491230057 29.368811857153744 H 0.0 **** 0.06
4864 H 46.2643013733898 24.157019067066983 29.154733824923596 H 0.0 **** 0.06
4865 H 46.26894343020547 23.005846056569396 27.797027989485116 H 0.0 **** 0.06
4866 C 105.11080618249642 39.94323363403363 10.365110294705687 C 0.0 **** -0.24
4867 H 105.94201506163071 40.261821329365375 9.735343998356484 H 0.0 **** 0.06
4868 H 104.17273901077925 40.0868672199233 9.827600938733383 H 0.0 **** 0.06
4869 H 105.10054700854155 40.534153037768455 11.280027113234098 H 0.0 **** 0.06
4870 H 105.22841998698541 38.88829582617367 10.61422495039676 H 0.0 **** 0.06
4871 C 69.37362596898348 16.65688952013717 84.83464598864333 C 0.0 **** -0.24
4872 H 69.61620738361755 17.718356570711023 84.78653351860845 H 0.0 **** 0.06
4873 H 70.27648183590767 16.088101947959146 85.05892012324864 H 0.0 **** 0.06
4874 H 68.96915937821173 16.33223423331347 83.87596899261871 H 0.0 **** 0.06
4875 H 68.63396680586585 16.48833922976344 85.61721801504791 H 0.0 **** 0.06
4876 C 95.04338669734226 9.649514912050805 21.604144707126153 C 0.0 **** -0.24
4877 H 93.95578420954683 9.680794016938421 21.662602114382338 H 0.0 **** 0.06
4878 H 95.46866030912413 10.053284843506418 22.523573941574654 H 0.0 **** 0.06
4879 H 95.37931582791556 10.246291502258671 20.755853360924448 H 0.0 **** 0.06
4880 H 95.36978644278258 8.617689285499779 21.474549411623173 H 0.0 **** 0.06
4881 C 63.43292697614015 20.501477369638735 67.58368367682885 C 0.0 **** -0.24
4882 H 63.4440087385877 19.966941232499522 68.5333073669785 H 0.0 **** 0.06
4883 H 64.01758203784344 19.94771869819388 66.84808002723095 H 0.0 **** 0.06
4884 H 63.86594181050717 21.493120085732613 67.72024798310224 H 0.0 **** 0.06
4885 H 62.40539396408718 20.598016075593762 67.23380795076284 H 0.0 **** 0.06
4886 C 67.46168360635411 91.93498910756381 7.24090613415558 C 0.0 **** -0.24
4887 H 68.39871457355775 91.4608131671991 7.535202032284957 H 0.0 **** 0.06
4888 H 67.67603023950244 92.84025431309063 6.672987754610261 H 0.0 **** 0.06
4889 H 66.88961654737727 92.19056586192337 8.132238066709647 H 0.0 **** 0.06
4890 H 66.88477442096905 91.24626562178287 6.6232252743387505 H 0.0 **** 0.06
4891 C 70.35063933407298 37.61621898229407 46.22178114404057 C 0.0 **** -0.24
4892 H 70.8732979831749 38.56771365172963 46.32369156250526 H 0.0 **** 0.06
4893 H 69.49131916873034 37.60082891082308 46.89279299431702 H 0.0 **** 0.06
4894 H 71.0277631257253 36.800987089741625 46.47760963647344 H 0.0 **** 0.06
4895 H 70.0114466354446 37.4971855812347 45.19310374512099 H 0.0 **** 0.06
4896 C 14.532259590387568 41.48074095765503 9.151519386945111 C 0.0 **** -0.24
4897 H 13.627782192427773 42.08592958684358 9.204426616329172 H 0.0 **** 0.06
4898 H 15.032537460286932 41.488355300773435 10.120257727290976 H 0.0 **** 0.06
4899 H 15.200775533854866 41.89201245503415 8.394214874408135 H 0.0 **** 0.06
4900 H 14.270102271798038 40.45683861192259 8.886622522222595 H 0.0 **** 0.06
4901 C 34.69380466324304 80.91784678150334 80.42944785549497 C 0.0 **** -0.24
4902 H 35.40313891281568 80.39353304882718 81.0709686814049 H 0.0 **** 0.06
4903 H 35.22343604245617 81.35124048150116 79.58083935637148 H 0.0 **** 0.06
4904 H 34.207839421378196 81.71066115161173 80.99771099758468 H 0.0 **** 0.06
4905 H 33.94225624898803 80.2150205700793 80.06969493151064 H 0.0 **** 0.06
4906 C 12.931292366032096 90.44400965514369 66.14773858391823 C 0.0 **** -0.24
4907 H 12.564231491850052 91.46548231182659 66.04702215720079 H 0.0 **** 0.06
4908 H 12.372520577080351 89.93396937374483 66.93339623072166 H 0.0 **** 0.06
4909 H 13.989829322252106 90.46233205711847 66.40775527991292 H 0.0 **** 0.06
4910 H 12.79728426837707 89.91424831467529 65.20485439584476 H 0.0 **** 0.06
4911 C 61.83884144147822 45.07980750865369 2.6657857288728497 C 0.0 **** -0.24
4912 H 61.812430629627556 46.09516657766726 3.062068863161455 H 0.0 **** 0.06
4913 H 62.53577876212182 44.47990317860774 3.2510122054938044 H 0.0 **** 0.06
4914 H 62.16344833847387 45.10407026614909 1.625600391304002 H 0.0 **** 0.06
4915 H 60.84279088670553 44.64084841998143 2.725225493787982 H 0.0 **** 0.06
4916 C 106.83809406285079 86.16865826530614 27.777553705387305 C 0.0 **** -0.24
4917 H 107.40433706154336 86.44185383484435 28.66831570577446 H 0.0 **** 0.06
4918 H 105.97962317016773 85.56208818221063 28.064900695273224 H 0.0 **** 0.06
4919 H 107.4772389693875 85.59881350800694 27.10193792492646 H 0.0 **** 0.06
4920 H 106.49351237262148 87.07224973109479 27.274421717140882 H 0.0 **** 0.06
4921 C 23.049239697581413 60.58385875191925 15.457394285230848 C 0.0 **** -0.24
4922 H 22.235281373854377 60.26218148586251 14.807542411768896 H 0.0 **** 0.06
4923 H 23.97724751487928 60.10664115013091 15.14093139083214 H 0.0 **** 0.06
4924 H 22.826403458551198 60.300429523711415 16.48593292595975 H 0.0 **** 0.06
4925 H 23.157357919974658 61.666436218914725 15.394471177335756 H 0.0 **** 0.06
4926 C 18.43920666404412 99.8165813939516 25.749648730621647 C 0.0 **** -0.24
4927 H 19.146716200223977 100.43037902678394 25.19185970017474 H 0.0 **** 0.06
4928 H 18.206107361213625 100.303015302867 26.697850569154344 H 0.0 **** 0.06
4929 H 18.879211237711445 98.8386498488999 25.941538454017195 H 0.0 **** 0.06
4930 H 17.525708701952908 99.69647645675659 25.167930499104937 H 0.0 **** 0.06
4931 C 45.121603406536906 56.087219429155915 109.57474481758501 C 0.0 **** -0.24
4932 H 45.038047079286294 57.172900810658966 109.5414720587973 H 0.0 **** 0.06
4933 H 44.580455149666946 55.65506948682169 108.73209843188968 H 0.0 **** 0.06
4934 H 44.696071730284984 55.718383075608635 110.5078420175327 H 0.0 **** 0.06
4935 H 46.17229656850448 55.8017406258608 109.51714595683612 H 0.0 **** 0.06
4936 C 53.381528432141636 54.420039931175616 40.26428457612337 C 0.0 **** -0.24
4937 H 53.72936615024881 53.4162173681299 40.01833722695886 H 0.0 **** 0.06
4938 H 52.78398806840477 54.38438735787031 41.174639572808104 H 0.0 **** 0.06
4939 H 52.773796767303566 54.80381253651575 39.44472696145772 H 0.0 **** 0.06
4940 H 54.239715654095136 55.07399515858853 40.41690856822996 H 0.0 **** 0.06
4941 C 17.031227988563828 82.6783460017364 89.64722067229752 C 0.0 **** -0.24
4942 H 17.912731459042234 83.308033619668 89.52614629760114 H 0.0 **** 0.06
4943 H 17.26141244397519 81.86031826630051 90.33116416014178 H 0.0 **** 0.06
4944 H 16.739765627131817 82.27107098187031 88.67859708153594 H 0.0 **** 0.06
4945 H 16.213023603962085 83.27300535360794 90.05301456821246 H 0.0 **** 0.06
4946 C 23.64801058162095 26.767544944618937 107.26622667730871 C 0.0 **** -0.24
4947 H 24.238927876608415 27.544147004000685 107.7533662151406 H 0.0 **** 0.06
4948 H 23.16816493570508 26.147653346235167 108.0238957669059 H 0.0 **** 0.06
4949 H 24.30058466639224 26.14853042290923 106.65026160841984 H 0.0 **** 0.06
4950 H 22.886478215504354 27.230257560977407 106.63947290465609 H 0.0 **** 0.06
4951 C 64.75055993854133 86.89328619463011 6.869687011402007 C 0.0 **** -0.24
4952 H 63.76025724420184 87.13457205609892 6.483140013506016 H 0.0 **** 0.06
4953 H 65.34260335668519 87.80496306448167 6.9447183353542385 H 0.0 **** 0.06
4954 H 65.24393826276787 86.19494602078959 6.193244314254841 H 0.0 **** 0.06
4955 H 64.65465499554755 86.43819049774703 7.855374082096688 H 0.0 **** 0.06
4956 C 37.304328394187536 54.100961348844976 94.4035660726219 C 0.0 **** -0.24
4957 H 37.873508817227474 54.896110215359556 93.92192637895975 H 0.0 **** 0.06
4958 H 36.26936033580125 54.420404778252475 94.52966891367797 H 0.0 **** 0.06
4959 H 37.73838209694651 53.88293776895489 95.37859011902226 H 0.0 **** 0.06
4960 H 37.33556689678605 53.20553920108017 93.78251678775419 H 0.0 **** 0.06
4961 C 20.20469955910906 12.831192026706162 85.3690407049422 C 0.0 **** -0.24
4962 H 21.12049594583019 12.986760136506177 85.93982563223062 H 0.0 **** 0.06
4963 H 19.933368672205322 11.775811871838755 85.39890964560396 H 0.0 **** 0.06
4964 H 20.364558807041394 13.136535129368099 84.33553094889835 H 0.0 **** 0.06
4965 H 19.401100213638426 13.425218706749945 85.8034060115253 H 0.0 **** 0.06
4966 C 27.762422529579624 60.69549663213593 97.56202758966825 C 0.0 **** -0.24
4967 H 28.499814477100472 61.47010184449721 97.35202822770687 H 0.0 **** 0.06
4968 H 26.761030908220476 61.094022953018566 97.39762721864254 H 0.0 **** 0.06
4969 H 27.85999065683174 60.371781886864426 98.59796149500453 H 0.0 **** 0.06
4970 H 27.930059550679317 59.84628912155881 96.89862171170611 H 0.0 **** 0.06
4971 C 52.30682021726289 18.112052613452253 74.05457795684327 C 0.0 **** -0.24
4972 H 52.97785715533431 17.36310606033488 74.47298955006568 H 0.0 **** 0.06
4973 H 51.28490460219474 17.904661302910853 74.37434076905669 H 0.0 **** 0.06
4974 H 52.360043720781604 18.080283038202786 72.96575709047727 H 0.0 **** 0.06
4975 H 52.60308800805284 19.10138097214533 74.40396554054036 H 0.0 **** 0.06
4976 C 68.8437833926007 30.366063580638382 101.23391915178001 C 0.0 **** -0.24
4977 H 69.91363386626449 30.155112531167504 101.25102309875251 H 0.0 **** 0.06
4978 H 68.68446539569578 31.41448383297785 100.9838700293966 H 0.0 **** 0.06
4979 H 68.41738361012614 30.156276804763905 102.21566284240032 H 0.0 **** 0.06
4980 H 68.36167942383673 29.735878115932366 100.48673919119767 H 0.0 **** 0.06
4981 C 98.37798234500212 11.420152194997996 78.5623120759472 C 0.0 **** -0.24
4982 H 99.28408305080768 10.862123870682751 78.32752337167427 H 0.0 **** 0.06
4983 H 97.53927671158408 11.000901630476122 78.00519201599698 H 0.0 **** 0.06
4984 H 98.51344468424355 12.46534808972288 78.28459936461833 H 0.0 **** 0.06
4985 H 98.1754254024645 11.351058403264318 79.63120898784413 H 0.0 **** 0.06
4986 C 91.15114922808007 47.027876227311076 40.991623006284954 C 0.0 **** -0.24
4987 H 90.9305655128864 47.99951566245138 40.54913513359874 H 0.0 **** 0.06
4988 H 90.2919994802871 46.690188311502766 41.572348854417385 H 0.0 **** 0.06
4989 H 92.02052618363193 47.11463221668307 41.6438821607653 H 0.0 **** 0.06
4990 H 91.36044669077087 46.30848225255641 40.20073446681127 H 0.0 **** 0.06
4991 C 64.97575716511426 20.275864678164954 54.07026588280945 C 0.0 **** -0.24
4992 H 65.16941818982525 21.300046394687808 54.38871850189946 H 0.0 **** 0.06
4993 H 64.96811715296283 19.619252239741805 54.94072934499934 H 0.0 **** 0.06
4994 H 65.75735114994231 19.956184151181535 53.38034551417525 H 0.0 **** 0.06
4995 H 64.00802575591109 20.22808505410071 53.569545441717025 H 0.0 **** 0.06
4996 C 41.70494333418955 102.44413105549545 95.65147693022186 C 0.0 **** -0.24
4997 H 41.87429463020732 103.47434412204618 95.33893090221181 H 0.0 **** 0.06
4998 H 41.161049198718786 101.9116963987651 94.8707769855597 H 0.0 **** 0.06
4999 H 41.12088394402315 102.4346008274882 96.57135824426786 H 0.0 **** 0.06
5000 H 42.663545563808896 101.95588287368227 95.82484158884807 H 0.0 **** 0.06
5001 C 11.637673359608414 13.682709729019749 104.77320442115884 C 0.0 **** -0.24
5002 H 12.137214409856313 14.641719204108938 104.91284130979157 H 0.0 **** 0.06
5003 H 11.174878990321758 13.3749433049895 105.71161058738384 H 0.0 **** 0.06
5004 H 12.367653023922855 12.933977012010757 104.46457049174748 H 0.0 **** 0.06
5005 H 10.87059555418574 13.780833417643578 104.00500962273084 H 0.0 **** 0.06
5006 C 47.19974754230616 25.18468033202548 45.229165881828436 C 0.0 **** -0.24
5007 H 48.212786422562694 25.57996946507439 45.15820417604367 H 0.0 **** 0.06
5008 H 46.73392289263172 25.202781712574875 44.24345616756375 H 0.0 **** 0.06
5009 H 46.61804053211289 25.79820078900903 45.91819602510684 H 0.0 **** 0.06
5010 H 47.2343997926823 24.158741462958737 45.596635003825895 H 0.0 **** 0.06
5011 C 75.11393505239451 4.476145213548406 33.623551038092245 C 0.0 **** -0.24
5012 H 75.68390489664212 3.5597766302808793 33.783012490567955 H 0.0 **** 0.06
5013 H 74.31480155599519 4.539362689616041 34.361816604408034 H 0.0 **** 0.06
5014 H 74.68534389896874 4.4672011135864125 32.622063433329146 H 0.0 **** 0.06
5015 H 75.77477050949813 5.3359071937894385 33.72874914992528 H 0.0 **** 0.06
5016 C 81.96645320596537 49.11327669213879 40.342647467718905 C 0.0 **** -0.24
5017 H 82.6632566682195 48.49968253614991 40.91421639693465 H 0.0 **** 0.06
5018 H 80.96845823405647 49.025963950862234 40.773028021843544 H 0.0 **** 0.06
5019 H 81.94735151243407 48.771556836911905 39.30780857903571 H 0.0 **** 0.06
5020 H 82.28760232328989 50.15387351550798 40.37660789874832 H 0.0 **** 0.06
5021 C 65.56366259991199 4.387641808666487 0.9794626296354494 C 0.0 **** -0.24
5022 H 66.3810431769449 3.8620654093413407 1.475262393631624 H 0.0 **** 0.06
5023 H 64.73838961036228 4.517568047156345 1.6796458442808984 H 0.0 **** 0.06
5024 H 65.22586206034103 3.8070314797412266 0.12130746754830568 H 0.0 **** 0.06
5025 H 65.91252008524037 5.364377776329121 0.6435739736679977 H 0.0 **** 0.06
5026 C 74.89212866698506 48.369056788662505 6.968153179147816 C 0.0 **** -0.24
5027 H 75.13385708618819 47.44336217384506 7.491413885129422 H 0.0 **** 0.06
5028 H 73.93036756450317 48.74307718910569 7.319318652412679 H 0.0 **** 0.06
5029 H 74.83857942852637 48.17681956017228 5.896562682885158 H 0.0 **** 0.06
5030 H 75.6658205827141 49.10993687335275 7.166990626015387 H 0.0 **** 0.06
5031 C 3.8773769618516667 36.15055411868104 5.428791186961064 C 0.0 **** -0.24
5032 H 4.4728110975120785 36.24113952753969 6.336775928908139 H 0.0 **** 0.06
5033 H 3.5408504610539353 35.12029069646228 5.315777794665422 H 0.0 **** 0.06
5034 H 4.484353758808368 36.43101709962815 4.566964851239504 H 0.0 **** 0.06
5035 H 3.012252154207431 36.810917761710414 5.493620349237517 H 0.0 **** 0.06
5036 C 87.92092315046935 71.49226791510338 31.701029799735565 C 0.0 **** -0.24
5037 H 88.65151743307118 72.2509460730871 31.42099534797451 H 0.0 **** 0.06
5038 H 87.8426931524948 71.44547196276783 32.7877289877364 H 0.0 **** 0.06
5039 H 88.23900570591715 70.52280491319591 31.317071655090487 H 0.0 **** 0.06
5040 H 86.94991991132258 71.7504248701648 31.27715763523406 H 0.0 **** 0.06
5041 C 43.5913108568364 8.558491828193894 21.138224540817788 C 0.0 **** -0.24
5042 H 43.85103226938588 7.963200884599814 20.26345068900696 H 0.0 **** 0.06
5043 H 43.096171154187516 7.925505824339325 21.873863856300744 H 0.0 **** 0.06
5044 H 42.921527436944416 9.365381629789056 20.842779409393074 H 0.0 **** 0.06
5045 H 44.49813452999365 8.980237582534585 21.572313511025612 H 0.0 **** 0.06
5046 C 13.840333112916344 81.1119745655006 0.12805536789196026 C 0.0 **** -0.24
5047 H 13.048148557492787 81.07233157989643 -0.6192858557782159 H 0.0 **** 0.06
5048 H 14.620313605895646 80.39476320544661 -0.1308176547879043 H 0.0 **** 0.06
5049 H 13.428902547673278 80.86398493009912 1.1071176515117855 H 0.0 **** 0.06
5050 H 14.26463953194851 82.1152221603667 0.1551874271052327 H 0.0 **** 0.06
5051 C 45.57358417277857 14.1001163820703 43.15793212693552 C 0.0 **** -0.24
5052 H 45.600076372285 14.222993051972217 44.24093876610556 H 0.0 **** 0.06
5053 H 46.591728737461665 14.057321863952392 42.77141547116008 H 0.0 **** 0.06
5054 H 45.04902931439426 14.94521347664407 42.7102915957052 H 0.0 **** 0.06
5055 H 45.050602338931014 13.176718195487261 42.91027384542764 H 0.0 **** 0.06
5056 C 45.892688746964495 82.29091563546183 60.56910905742291 C 0.0 **** -0.24
5057 H 46.6265933194548 82.54208063558355 59.80363596054275 H 0.0 **** 0.06
5058 H 45.05955325365298 81.75641236698442 60.112070330011534 H 0.0 **** 0.06
5059 H 45.52560182985755 83.20617083266518 61.03513057821658 H 0.0 **** 0.06
5060 H 46.35788076937337 81.6595904138266 61.32621784381064 H 0.0 **** 0.06
5061 C 98.36622287568645 73.25895742414612 37.99389426069825 C 0.0 **** -0.24
5062 H 99.10072496953796 73.61750039975198 38.714093125069404 H 0.0 **** 0.06
5063 H 97.93759628007336 74.10715525265199 37.45815211049174 H 0.0 **** 0.06
5064 H 97.57436867894455 72.72178213634086 38.517544514878146 H 0.0 **** 0.06
5065 H 98.85172494121741 72.58831898289328 37.28363742018362 H 0.0 **** 0.06
5066 C 90.63755172693476 58.205225646308634 18.88473871662228 C 0.0 **** -0.24
5067 H 90.88628937449619 59.04568211523335 19.532317549473262 H 0.0 **** 0.06
5068 H 90.33494315395967 57.353151649181825 19.494994329471453 H 0.0 **** 0.06
5069 H 91.50905329792732 57.934988085021615 18.28911089945575 H 0.0 **** 0.06
5070 H 89.81773373085514 58.48696198188691 18.223628305482563 H 0.0 **** 0.06
5071 C 17.14309105580054 68.31672761459015 107.45040837763244 C 0.0 **** -0.24
5072 H 16.533233398205795 67.75227808580757 108.15547873442833 H 0.0 **** 0.06
5073 H 17.212916798614458 69.3542262740504 107.7796815768651 H 0.0 **** 0.06
5074 H 16.685837018359635 68.27839526942961 106.46165853890993 H 0.0 **** 0.06
5075 H 18.142569487651144 67.88241758550203 107.4049814836388 H 0.0 **** 0.06
5076 C 52.30271048688536 40.22405989027152 28.76082334735088 C 0.0 **** -0.24
5077 H 53.223827558994564 39.884954376802284 29.235530296834895 H 0.0 **** 0.06
5078 H 52.39456862889929 41.27979490910445 28.504467059503895 H 0.0 **** 0.06
5079 H 51.468907295832814 40.08893553222856 29.449421552080423 H 0.0 **** 0.06
5080 H 52.1256576215893 39.6440109285042 27.85571545611299 H 0.0 **** 0.06
5081 C 67.19263725454925 57.47293541197404 21.527272919541417 C 0.0 **** -0.24
5082 H 67.48410618804917 57.48843695078872 22.577737319004996 H 0.0 **** 0.06
5083 H 66.50574834699864 56.64406433353982 21.35361730687299 H 0.0 **** 0.06
5084 H 68.07940914010965 57.34742480240136 20.905801612759063 H 0.0 **** 0.06
5085 H 66.70105612334817 58.41250295462264 21.273799614079167 H 0.0 **** 0.06
5086 C 96.40268676987822 68.27839564548196 80.24925036781461 C 0.0 **** -0.24
5087 H 96.64565372626306 68.05640208045406 79.2101672268514 H 0.0 **** 0.06
5088 H 97.1896852640743 67.89146327461515 80.89692976156965 H 0.0 **** 0.06
5089 H 95.4544924326295 67.80742105621403 80.50821424742227 H 0.0 **** 0.06
5090 H 96.32065354974499 69.35741271825452 80.38130182655037 H 0.0 **** 0.06
5091 C 109.32733130979025 103.85977926732723 49.49891523837448 C 0.0 **** -0.24
5092 H 109.47733930029398 104.30496971790942 50.48311236811168 H 0.0 **** 0.06
5093 H 108.45254734064926 104.3090507493301 49.02695857515562 H 0.0 **** 0.06
5094 H 109.17043594933403 102.78590422552931 49.60591599439772 H 0.0 **** 0.06
5095 H 110.20660502115288 104.03953186649174 48.88113570123255 H 0.0 **** 0.06
5096 C 38.50760316959746 32.45796249830187 4.992384527742278 C 0.0 **** -0.24
5097 H 38.037298670879814 31.61192739709537 5.494936236095681 H 0.0 **** 0.06
5098 H 38.965348447149694 32.119938708509096 4.063162810819227 H 0.0 **** 0.06
5099 H 39.27280471873692 32.88523304045077 5.6410203053395005 H 0.0 **** 0.06
5100 H 37.754409218079125 33.21446994151887 4.773178686225039 H 0.0 **** 0.06
5101 C 39.45983868965424 5.210149467002921 96.77928663253707 C 0.0 **** -0.24
5102 H 38.86396388750295 5.640722463355289 95.97381469950352 H 0.0 **** 0.06
5103 H 39.09110328280616 5.573780675488919 97.73802088702891 H 0.0 **** 0.06
5104 H 40.50214751037562 5.5017241183577426 96.65485050805884 H 0.0 **** 0.06
5105 H 39.38043707609747 4.123755075329328 96.74718605096285 H 0.0 **** 0.06
5106 C 90.83028597231944 105.4905908245284 71.87429232279064 C 0.0 **** -0.24
5107 H 91.612551549235 104.89747903448924 71.40048240237229 H 0.0 **** 0.06
5108 H 91.24829986836974 106.43833529213745 72.21335671358909 H 0.0 **** 0.06
5109 H 90.4266416031821 104.94466538647882 72.72725745866506 H 0.0 **** 0.06
5110 H 90.03377384896646 105.68181253752147 71.15466561769452 H 0.0 **** 0.06
5111 C 36.0553625270274 109.36941045383094 55.65803137662749 C 0.0 **** -0.24
5112 H 36.1511017823932 110.42856501541075 55.8973731421944 H 0.0 **** 0.06
5113 H 36.62581058453168 108.781452429431 56.37815033663907 H 0.0 **** 0.06
5114 H 36.440913022403066 109.1879947791152 54.65455140515979 H 0.0 **** 0.06
5115 H 35.00584996118198 109.08050903790817 55.70257518644925 H 0.0 **** 0.06
5116 C 44.94885375888262 92.99285595813429 38.9912960013412 C 0.0 **** -0.24
5117 H 45.895591082114066 93.0309064510284 39.531604749113114 H 0.0 **** 0.06
5118 H 45.14509435802688 92.86618948034868 37.9265156933165 H 0.0 **** 0.06
5119 H 44.401711871075406 93.92134396066649 39.15271042968874 H 0.0 **** 0.06
5120 H 44.35718991924102 92.15361990577685 39.35478813840274 H 0.0 **** 0.06
5121 C 85.87844403919541 86.69228569597203 22.659146358623474 C 0.0 **** -0.24
5122 H 86.94914345413525 86.75128727099315 22.460494649139207 H 0.0 **** 0.06
5123 H 85.70702745059901 86.73183867553826 23.735460366045572 H 0.0 **** 0.06
5124 H 85.4866489852127 85.75621548314132 22.26210099640994 H 0.0 **** 0.06
5125 H 85.37398676628385 87.53043104264486 22.179177544057808 H 0.0 **** 0.06
5126 C 36.40799183902527 46.207137249160496 100.63880426823927 C 0.0 **** -0.24
5127 H 37.45401328804007 46.43430008258803 100.43293042121215 H 0.0 **** 0.06
5128 H 35.978145722554615 46.99978038773721 101.25184674023743 H 0.0 **** 0.06
5129 H 36.339857926518675 45.25831197101204 101.17028633688203 H 0.0 **** 0.06
5130 H 35.860317287282584 46.137118601310135 99.69876072726248 H 0.0 **** 0.06
5131 C 84.79238700079506 102.0045206990452 2.0394086237576374 C 0.0 **** -0.24
5132 H 85.74617859929435 102.40861890247356 1.7000694202469901 H 0.0 **** 0.06
5133 H 84.05258063309441 102.80418742923904 2.077362913715163 H 0.0 **** 0.06
5134 H 84.91441080759535 101.57370350956943 3.033011454465125 H 0.0 **** 0.06
5135 H 84.45803638120202 101.23202328662352 1.3454450983041397 H 0.0 **** 0.06
5136 C 47.879282034442184 91.81728075222213 51.151846043552126 C 0.0 **** -0.24
5137 H 47.23054404765773 92.68353176536493 51.28011158963345 H 0.0 **** 0.06
5138 H 48.06051271229518 91.35310177801847 52.12150743125812 H 0.0 **** 0.06
5139 H 48.82773281806871 92.13556839638602 50.71863134890183 H 0.0 **** 0.06
5140 H 47.39820855353432 91.09868108232763 50.48850701220066 H 0.0 **** 0.06
5141 C 102.61371854584883 20.520596900153294 76.75919310941836 C 0.0 **** -0.24
5142 H 102.14084765841318 21.441472521667094 76.41959920577239 H 0.0 **** 0.06
5143 H 103.63063772605767 20.73380709682243 77.08707358469792 H 0.0 **** 0.06
5144 H 102.63807503771008 19.80131534596569 75.93999489339706 H 0.0 **** 0.06
5145 H 102.04353112105798 20.10452841897012 77.59057824795238 H 0.0 **** 0.06
5146 C 77.3255320088204 12.833162105302932 78.40879089603902 C 0.0 **** -0.24
5147 H 78.41364311904579 12.847109992128182 78.34357933297531 H 0.0 **** 0.06
5148 H 76.94992453497673 11.89453621487965 78.00064342813522 H 0.0 **** 0.06
5149 H 76.91644064698141 13.667739824192282 77.83958782111011 H 0.0 **** 0.06
5150 H 77.02258255794976 12.922089013114928 79.45290515498604 H 0.0 **** 0.06
5151 C 40.026323185130025 17.4045752747494 50.31821973432116 C 0.0 **** -0.24
5152 H 40.10988998966923 18.487638479256763 50.411163666737885 H 0.0 **** 0.06
5153 H 39.58959485340364 16.99432865256065 51.22941839364221 H 0.0 **** 0.06
5154 H 41.015924425973765 16.975081760877682 50.16463414776898 H 0.0 **** 0.06
5155 H 39.38861387866319 17.160670751494614 49.46788665656912 H 0.0 **** 0.06
5156 C 72.52602857421846 14.011384914681564 32.73821086110047 C 0.0 **** -0.24
5157 H 72.65445447032903 13.70031233955384 31.701757545492256 H 0.0 **** 0.06
5158 H 73.24999395255031 13.491787020074877 33.36613126733363 H 0.0 **** 0.06
5159 H 71.51579922534472 13.76545746966946 33.06909050358928 H 0.0 **** 0.06
5160 H 72.68150548352315 15.08733757898263 32.81595819385376 H 0.0 **** 0.06
5161 C 25.586972710737655 99.59778082209783 107.50959812946304 C 0.0 **** -0.24
5162 H 25.51362946765816 100.66433260085157 107.7219867619715 H 0.0 **** 0.06
5163 H 25.41769968237857 99.42674537196103 106.44628566284378 H 0.0 **** 0.06
5164 H 24.834803170662703 99.06029064098416 108.08845668926038 H 0.0 **** 0.06
5165 H 26.579102884290368 99.24014536033053 107.78300332824985 H 0.0 **** 0.06
5166 C 24.814849438700463 71.62774345390443 56.56413083516509 C 0.0 **** -0.24
5167 H 25.47457204790973 71.48615492287706 57.42034263364354 H 0.0 **** 0.06
5168 H 25.18686547800769 71.04794425406175 55.71871858290393 H 0.0 **** 0.06
5169 H 24.787189263452603 72.68442191302444 56.2972330360451 H 0.0 **** 0.06
5170 H 23.810050940319996 71.29231440048079 56.82143843875235 H 0.0 **** 0.06
5171 C 10.58798477761016 47.23501143395829 53.383496638262244 C 0.0 **** -0.24
5172 H 11.063840456695957 46.265499206562446 53.53331757613881 H 0.0 **** 0.06
5173 H 11.32989402314226 47.951432102372415 53.03099138591608 H 0.0 **** 0.06
5174 H 10.166062032250778 47.58275953962777 54.32582633498751 H 0.0 **** 0.06
5175 H 9.79422951188458 47.13897241818209 52.64253445400965 H 0.0 **** 0.06
5176 C 57.78811560521251 86.03808346195999 104.41811652698016 C 0.0 **** -0.24
5177 H 57.894663458906564 85.94020740066482 105.49851353695328 H 0.0 **** 0.06
5178 H 57.196025450566765 85.20636609126679 104.03543603308628 H 0.0 **** 0.06
5179 H 58.773708635437686 86.02759481005376 103.95352617743015 H 0.0 **** 0.06
5180 H 57.28739420346835 86.97813877288738 104.18623518201952 H 0.0 **** 0.06
5181 C 99.46664115506714 107.21918466387942 78.99236601213961 C 0.0 **** -0.24
5182 H 99.0308403476367 106.22760679603788 78.87333319017199 H 0.0 **** 0.06
5183 H 100.54090194558628 107.16755173234793 78.815910225598 H 0.0 **** 0.06
5184 H 99.28129098544314 107.57880078455786 80.00520434767263 H 0.0 **** 0.06
5185 H 99.0129760084069 107.90400640251752 78.27544759478367 H 0.0 **** 0.06
5186 C 86.6530626383759 104.64908265308594 76.59061086343087 C 0.0 **** -0.24
5187 H 86.16377511342927 104.15700155764716 75.74969124421881 H 0.0 **** 0.06
5188 H 87.02543302147103 103.89625844941338 77.28491976305367 H 0.0 **** 0.06
5189 H 85.93767028335719 105.29326776439859 77.10174996404771 H 0.0 **** 0.06
5190 H 87.48594136327182 105.25030313424804 76.22452497328806 H 0.0 **** 0.06
5191 C 86.68472810742946 22.600064442495437 16.563018501766294 C 0.0 **** -0.24
5192 H 87.39553632309116 22.007618268700412 17.13937177100084 H 0.0 **** 0.06
5193 H 85.85492685176325 22.895155341251694 17.204726432188977 H 0.0 **** 0.06
5194 H 86.30729363683668 22.00596388092106 15.730914787119929 H 0.0 **** 0.06
5195 H 87.18353764044872 23.490085000230636 16.1785664865115 H 0.0 **** 0.06
5196 C 46.54432476660036 100.34514499352377 84.78627375296955 C 0.0 **** -0.24
5197 H 46.98120926278638 100.37457441097577 83.78797233482368 H 0.0 **** 0.06
5198 H 45.683478263335886 101.01232122766673 84.82628647415487 H 0.0 **** 0.06
5199 H 47.28737952947333 100.66477578431672 85.51744998373081 H 0.0 **** 0.06
5200 H 46.22679839538288 99.32716639303074 85.01410149657796 H 0.0 **** 0.06
5201 C 74.59445408572131 28.280162901467122 38.65182795880622 C 0.0 **** -0.24
5202 H 74.28263099800068 29.32388633619297 38.687106903492975 H 0.0 **** 0.06
5203 H 75.04080803552938 28.06756694970153 37.6807461173849 H 0.0 **** 0.06
5204 H 73.72739840787398 27.637262656678274 38.80281001122819 H 0.0 **** 0.06
5205 H 75.32693441262245 28.093662285139487 39.43806903038319 H 0.0 **** 0.06
5206 C 109.37989773670598 10.876434466294029 106.54042772725467 C 0.0 **** -0.24
5207 H 109.7552498644836 10.408881469050925 107.45024847716539 H 0.0 **** 0.06
5208 H 110.19412549608143 10.974369673215733 105.8213346934595 H 0.0 **** 0.06
5209 H 108.98290006716478 11.86408907153998 106.77609299714948 H 0.0 **** 0.06
5210 H 108.59032207172187 10.259563837559767 106.11276933789969 H 0.0 **** 0.06
5211 C 0.4472741729761083 44.382739614340935 7.375436074908167 C 0.0 **** -0.24
5212 H 1.1264201073369833 43.53054947332271 7.355978068651105 H 0.0 **** 0.06
5213 H -0.10859415070335388 44.38150566473857 8.31363104496956 H 0.0 **** 0.06
5214 H -0.2481959520206658 44.31112695326428 6.539865766695852 H 0.0 **** 0.06
5215 H 1.0212990720322352 45.30575004445561 7.2935091099728915 H 0.0 **** 0.06
5216 C 27.27436298828161 94.57085606370427 33.336520703161966 C 0.0 **** -0.24
5217 H 26.429519358075744 94.15202302177762 32.79040445798313 H 0.0 **** 0.06
5218 H 27.912030311844177 95.1271176656036 32.650380618895184 H 0.0 **** 0.06
5219 H 27.84765977559728 93.7633115725079 33.79201116405687 H 0.0 **** 0.06
5220 H 26.907251958696175 95.2389117790932 34.11624883726722 H 0.0 **** 0.06
5221 C 6.170059548500689 56.62781927534871 25.612913956561357 C 0.0 **** -0.24
5222 H 6.324361546457979 55.63709305789118 26.039706984786164 H 0.0 **** 0.06
5223 H 7.0439689026557915 57.24817343427304 25.811095712021256 H 0.0 **** 0.06
5224 H 5.2893343229422385 57.08545787563406 26.06549537792077 H 0.0 **** 0.06
5225 H 6.021286348342471 56.541093697259555 24.536382909305786 H 0.0 **** 0.06
5226 C 69.15803782813717 32.87483246746004 65.90383674709466 C 0.0 **** -0.24
5227 H 68.80687228941588 31.85614540927122 65.73996089473701 H 0.0 **** 0.06
5228 H 70.19336187336899 32.959529661077624 65.56986145718486 H 0.0 **** 0.06
5229 H 69.09834747810288 33.113686735201895 66.96590952685676 H 0.0 **** 0.06
5230 H 68.5362833898717 33.569180834118555 65.33974316624108 H 0.0 **** 0.06
5231 C 97.19929590744991 95.8688929191872 10.777572685191004 C 0.0 **** -0.24
5232 H 98.23182042492837 95.55470081332582 10.931849483941804 H 0.0 **** 0.06
5233 H 96.61591108415172 95.65082709057714 11.672742703137587 H 0.0 **** 0.06
5234 H 96.77806613707043 95.32815601358931 9.929578591139176 H 0.0 **** 0.06
5235 H 97.17103008085189 96.93993019794769 10.57714051859648 H 0.0 **** 0.06
5236 C 24.50497916207189 52.61211338224278 104.6480077915442 C 0.0 **** -0.24
5237 H 25.355652957921336 52.26290477428066 104.0606880957001 H 0.0 **** 0.06
5238 H 24.7777719946028 52.635613115361046 105.7034568608663 H 0.0 **** 0.06
5239 H 23.663287541601107 51.93532239710694 104.50510578732963 H 0.0 **** 0.06
5240 H 24.225644024033727 53.6138785121888 104.32119686530149 H 0.0 **** 0.06
5241 C 13.683571151381841 23.787643175385995 15.670449879171002 C 0.0 **** -0.24
5242 H 14.583004741721709 23.398400669836406 16.1469635984798 H 0.0 **** 0.06
5243 H 13.83266199477373 23.826205368228784 14.590833836467496 H 0.0 **** 0.06
5244 H 13.479576536201023 24.791011111295916 16.045665680131805 H 0.0 **** 0.06
5245 H 12.840634810055946 23.13680508414933 15.898537297390959 H 0.0 **** 0.06
5246 C 94.12606109784235 15.646554179387678 3.1924376993604113 C 0.0 **** -0.24
5247 H 94.79645017713321 15.381021460839566 2.374296037017814 H 0.0 **** 0.06
5248 H 93.83828218732688 16.6937713014951 3.100740095393391 H 0.0 **** 0.06
5249 H 94.6346586383275 15.490789492656539 4.142948448062683 H 0.0 **** 0.06
5250 H 93.2350768333946 15.019489340418854 3.149002304230393 H 0.0 **** 0.06
5251 C 91.39703008876563 40.05881829216182 102.3993906255352 C 0.0 **** -0.24
5252 H 92.30285194850768 40.64329593409889 102.56155573828079 H 0.0 **** 0.06
5253 H 91.65820179581755 39.005909101176655 102.29517729715991 H 0.0 **** 0.06
5254 H 90.90187936813817 40.403161746731 101.49168462059771 H 0.0 **** 0.06
5255 H 90.7272085665316 40.1853019070783 103.24956463993021 H 0.0 **** 0.06
5256 C 96.1151248287791 34.3392184724878 66.74180138395548 C 0.0 **** -0.24
5257 H 95.71589259772752 35.27248264609881 66.34446591073635 H 0.0 **** 0.06
5258 H 96.86979574383174 33.94787561269783 66.05972629310855 H 0.0 **** 0.06
5259 H 95.30772536558676 33.614125241859085 66.84582924350485 H 0.0 **** 0.06
5260 H 96.56660119276079 34.52324901364034 67.71735188503192 H 0.0 **** 0.06
5261 C 33.08650974465996 18.88524272484358 54.18983323192455 C 0.0 **** -0.24
5262 H 32.99305916613588 19.912374938354674 53.83712050104583 H 0.0 **** 0.06
5263 H 32.21704432984478 18.310573247281866 53.86937451807384 H 0.0 **** 0.06
5264 H 33.14542554974395 18.878337213888074 55.27814113723272 H 0.0 **** 0.06
5265 H 33.99050993291536 18.43968549984993 53.7746967713459 H 0.0 **** 0.06
5266 C 96.32947443497721 79.6835185113446 3.1440964565843075 C 0.0 **** -0.24
5267 H 96.42504506645211 80.32071021980525 2.2649253448410462 H 0.0 **** 0.06
5268 H 95.2881412309996 79.66234764807922 3.4645582909052024 H 0.0 **** 0.06
5269 H 96.94983316586054 80.08012964543713 3.9478523398907583 H 0.0 **** 0.06
5270 H 96.6561216433689 78.67321017343278 2.89730193042476 H 0.0 **** 0.06
5271 C 28.917032636500096 57.5096304862348 98.32281625009232 C 0.0 **** -0.24
5272 H 28.24839845083389 57.77904268897769 99.14084637792521 H 0.0 **** 0.06
5273 H 29.3093408450396 58.416407781477005 97.8611831416369 H 0.0 **** 0.06
5274 H 28.368367225275648 56.93079144302893 97.58045754538675 H 0.0 **** 0.06
5275 H 29.742746628818225 56.91350827777248 98.71160100997793 H 0.0 **** 0.06
5276 C 40.059853190584874 60.688120185445285 12.059471864851218 C 0.0 **** -0.24
5277 H 40.1587326142766 59.6891635192265 11.635910473736203 H 0.0 **** 0.06
5278 H 41.00850170846644 61.21806884321023 11.96616944539528 H 0.0 **** 0.06
5279 H 39.78939382850926 60.61113587790322 13.112638527705258 H 0.0 **** 0.06
5280 H 39.28461154091789 61.23442762296392 11.523919495082623 H 0.0 **** 0.06
5281 C 0.250261573182442 9.948802939703969 56.01521042645595 C 0.0 **** -0.24
5282 H 1.0984197689740114 9.721525609791497 56.660603738061695 H 0.0 **** 0.06
5283 H 0.5657675914250717 10.63509377619984 55.22822008837517 H 0.0 **** 0.06
5284 H -0.5422057442587231 10.410946438648915 56.60426630119048 H 0.0 **** 0.06
5285 H -0.12110980378120928 9.0273635265073 55.56637684127526 H 0.0 **** 0.06
5286 C 29.657934798761573 102.65316435681103 20.005247093961543 C 0.0 **** -0.24
5287 H 30.13675545705871 102.46622990131772 20.966287226041743 H 0.0 **** 0.06
5288 H 29.72454356192759 101.75872327375055 19.386113611305802 H 0.0 **** 0.06
5289 H 30.161708921592947 103.48040272427761 19.504850051582252 H 0.0 **** 0.06
5290 H 28.61103376813213 102.90845251278158 20.16527830181076 H 0.0 **** 0.06
5291 C 81.08118098199674 21.08292977759314 44.16876594045476 C 0.0 **** -0.24
5292 H 82.09675726099209 21.465957336203175 44.07897463595191 H 0.0 **** 0.06
5293 H 80.43824736585884 21.85374738142973 44.5943402308705 H 0.0 **** 0.06
5294 H 81.07919652381383 20.207939325635603 44.81906022282277 H 0.0 **** 0.06
5295 H 80.70984959895662 20.80284422725338 43.18250988950419 H 0.0 **** 0.06
5296 C 103.72997180415734 88.22423265674051 76.14232654498687 C 0.0 **** -0.24
5297 H 103.16310847497812 88.17352488759985 75.21270374428764 H 0.0 **** 0.06
5298 H 103.19568517785132 87.68220036901953 76.92287358635042 H 0.0 **** 0.06
5299 H 103.84709871647624 89.2664589125471 76.4389518531467 H 0.0 **** 0.06
5300 H 104.71220203376066 87.7760814657122 75.99471518092741 H 0.0 **** 0.06
5301 C 44.66674904868438 71.38659418219606 24.463803189265775 C 0.0 **** -0.24
5302 H 44.02672141831812 72.23195538467024 24.718271220165207 H 0.0 **** 0.06
5303 H 44.17440410130126 70.77290860023686 23.70877711624712 H 0.0 **** 0.06
5304 H 44.84897184922545 70.78753216967311 25.356916564025624 H 0.0 **** 0.06
5305 H 45.61580789971049 71.75380840181674 24.07343429985889 H 0.0 **** 0.06
5306 C 16.765963952328867 66.46159682542641 75.00983149295877 C 0.0 **** -0.24
5307 H 17.56677624351129 66.95054547259423 74.4556936714514 H 0.0 **** 0.06
5308 H 16.809742073667003 65.38623271121783 74.83837204443773 H 0.0 **** 0.06
5309 H 15.803091610444458 66.84488964787894 74.668616830584 H 0.0 **** 0.06
5310 H 16.88190170966516 66.66672379853439 76.07310950194594 H 0.0 **** 0.06
5311 C 57.89675128564414 56.61325214615189 17.184930093821933 C 0.0 **** -0.24
5312 H 57.083548470747445 56.848796741480214 16.497917123272018 H 0.0 **** 0.06
5313 H 57.48707512788468 56.40578862634243 18.17389027372846 H 0.0 **** 0.06
5314 H 58.57983030624192 57.46074975027898 17.24397022815097 H 0.0 **** 0.06
5315 H 58.435354493944004 55.737394390935066 16.82272206596616 H 0.0 **** 0.06
5316 C 107.04106012275835 23.991405497760145 12.393422705822616 C 0.0 **** -0.24
5317 H 107.22003431744857 25.02644276909243 12.685783754729016 H 0.0 **** 0.06
5318 H 105.96901149207821 23.791352244628804 12.405561890475667 H 0.0 **** 0.06
5319 H 107.54342761984871 23.324000480579166 13.093897774860181 H 0.0 **** 0.06
5320 H 107.43010674505716 23.82477148594336 11.38903946941764 H 0.0 **** 0.06
5321 C 18.224326724379125 26.69897588016096 77.41718516078106 C 0.0 **** -0.24
5322 H 17.65999793462896 25.76819390111808 77.4866320059057 H 0.0 **** 0.06
5323 H 18.77506486086017 26.72043404882828 76.4758844646998 H 0.0 **** 0.06
5324 H 18.92495459627716 26.762101468754736 78.24956283312014 H 0.0 **** 0.06
5325 H 17.537627940085827 27.54369005552138 77.45474212974432 H 0.0 **** 0.06
5326 C 29.81654764978871 14.214722998138061 10.442437255583883 C 0.0 **** -0.24
5327 H 29.495471074665687 15.220721589068987 10.714121948885435 H 0.0 **** 0.06
5328 H 30.897328051501155 14.135345275992826 10.556917531736445 H 0.0 **** 0.06
5329 H 29.545312134841666 14.014940383527275 9.40573572087284 H 0.0 **** 0.06
5330 H 29.326824062935096 13.489438540902398 11.091968710425022 H 0.0 **** 0.06
5331 C 48.10832293853991 90.84795218839506 64.20909119458018 C 0.0 **** -0.24
5332 H 48.85593456358237 91.63742541333173 64.13054336621488 H 0.0 **** 0.06
5333 H 47.41321743791338 90.92178189883292 63.37143882738687 H 0.0 **** 0.06
5334 H 47.561807483820424 90.95708323353867 65.14597707238367 H 0.0 **** 0.06
5335 H 48.60143758592072 89.87613163362593 64.18645013537645 H 0.0 **** 0.06
5336 C 3.062229949014977 31.718536526710864 70.49925178964929 C 0.0 **** -0.24
5337 H 4.030098430616192 31.665363674897208 70.99899089617651 H 0.0 **** 0.06
5338 H 3.031711417305388 30.989684381476195 69.6887191972469 H 0.0 **** 0.06
5339 H 2.917366640226277 32.71968440946654 70.09379602034446 H 0.0 **** 0.06
5340 H 2.270997066508471 31.49836428113477 71.2160729555629 H 0.0 **** 0.06
5341 C 44.96699423787446 75.92040331346732 45.68343937920184 C 0.0 **** -0.24
5342 H 45.291775316662495 75.82336636973542 46.719830227508 H 0.0 **** 0.06
5343 H 45.1787700824582 76.9299837371542 45.329922376332945 H 0.0 **** 0.06
5344 H 43.89627392523826 75.72935032008968 45.61886709313046 H 0.0 **** 0.06
5345 H 45.50310574493139 75.19897803519376 45.06623364494726 H 0.0 **** 0.06
5346 C 21.825751279385074 93.14804851925487 96.26427294531968 C 0.0 **** -0.24
5347 H 22.63971477800262 93.52505153485936 96.88371545763815 H 0.0 **** 0.06
5348 H 21.872138526107964 92.05977794236338 96.22589025420385 H 0.0 **** 0.06
5349 H 21.919013982445904 93.5518207613195 95.2567195481233 H 0.0 **** 0.06
5350 H 20.87175810450866 93.45697088778894 96.69244568354502 H 0.0 **** 0.06
5351 C 94.62605794247725 58.18785098070915 38.08963153904989 C 0.0 **** -0.24
5352 H 94.77506726939095 59.18281813702146 37.67191827661776 H 0.0 **** 0.06
5353 H 93.70665767475174 57.75910992312059 37.687501894023086 H 0.0 **** 0.06
5354 H 94.55154233765671 58.25592882483584 39.17479543382727 H 0.0 **** 0.06
5355 H 95.47092474316952 57.5517860115284 37.82260834613797 H 0.0 **** 0.06
5356 C 22.76874131506544 61.58722686222555 77.00580393220757 C 0.0 **** -0.24
5357 H 23.446963384145704 60.76237184521402 76.7876184996505 H 0.0 **** 0.06
5358 H 21.761616463340715 61.32445462808829 76.68391405527531 H 0.0 **** 0.06
5359 H 23.09959027854181 62.47947298279246 76.47437973182082 H 0.0 **** 0.06
5360 H 22.768542083301142 61.78219132642201 78.07896923179305 H 0.0 **** 0.06
5361 C 33.10982858994075 35.69860972182397 84.83278849942864 C 0.0 **** -0.24
5362 H 32.3844430342065 35.55993157009317 85.63553572872061 H 0.0 **** 0.06
5363 H 32.95906138245829 34.93311368900072 84.07129656899811 H 0.0 **** 0.06
5364 H 34.118155586666376 35.61698249306761 85.23714782799469 H 0.0 **** 0.06
5365 H 32.974525255298914 36.685426457706455 84.38895671799125 H 0.0 **** 0.06
5366 C 90.52181994757058 14.735320278617081 37.52630907823402 C 0.0 **** -0.24
5367 H 91.18357186535908 15.592189990816479 37.397349425187514 H 0.0 **** 0.06
5368 H 90.80543255013066 14.190867266204407 38.4272145626021 H 0.0 **** 0.06
5369 H 90.60722046021823 14.07781237429964 36.66156522233172 H 0.0 **** 0.06
5370 H 89.49259973621633 15.08290812642025 37.61849005793562 H 0.0 **** 0.06
5371 C 101.2751567341125 2.254187116348376 78.41872281434095 C 0.0 **** -0.24
5372 H 100.23332429046997 2.5732173424316613 78.45798818050748 H 0.0 **** 0.06
5373 H 101.48429976690687 1.595146293054313 79.2618416014293 H 0.0 **** 0.06
5374 H 101.92500406811757 3.127347024754883 78.46884303517503 H 0.0 **** 0.06
5375 H 101.45608254382148 1.7201230989308414 77.48551738352751 H 0.0 **** 0.06
5376 C 53.821521307463655 46.155985691613466 104.65927701413975 C 0.0 **** -0.24
5377 H 54.68413937337317 45.984030000152416 104.01452028508893 H 0.0 **** 0.06
5378 H 52.912855513844136 45.85987007541232 104.13607167098955 H 0.0 **** 0.06
5379 H 53.76615090465248 47.21421162001053 104.9162748907323 H 0.0 **** 0.06
5380 H 53.926157288343234 45.56604312790796 105.56946595759645 H 0.0 **** 0.06
5381 C 3.4594543001227596 91.92382852520501 44.387007102468715 C 0.0 **** -0.24
5382 H 2.4269118938174676 91.65179498118204 44.16492860072026 H 0.0 **** 0.06
5383 H 3.919613819967264 91.14095376349843 44.98931030912058 H 0.0 **** 0.06
5384 H 3.4762308315952044 92.8646877842026 44.937622480423215 H 0.0 **** 0.06
5385 H 4.012727376439292 92.0390769463844 43.45471176791693 H 0.0 **** 0.06
5386 C 9.115578899523868 105.49101931131561 91.17266241832209 C 0.0 **** -0.24
5387 H 8.785309837053148 104.45607045690001 91.09159446921402 H 0.0 **** 0.06
5388 H 9.404411818530278 105.70087674265902 92.20320952329958 H 0.0 **** 0.06
5389 H 8.303879117780724 106.15611362747457 90.88040601573603 H 0.0 **** 0.06
5390 H 9.970761128148482 105.65121342450412 90.51631948239776 H 0.0 **** 0.06
5391 C 81.79475369206196 39.00633774541558 37.63832680787485 C 0.0 **** -0.24
5392 H 81.10859590149863 38.703691961607376 36.846980546273926 H 0.0 **** 0.06
5393 H 82.81944865013148 38.79744672151048 37.32911215238721 H 0.0 **** 0.06
5394 H 81.56797911478972 38.448812417194404 38.5473326852707 H 0.0 **** 0.06
5395 H 81.68163368787117 40.07275870310235 37.82879460321726 H 0.0 **** 0.06
5396 C 68.73674977332402 50.335240149688836 65.28178785183532 C 0.0 **** -0.24
5397 H 69.40473332279302 49.59125994868702 65.71615672212633 H 0.0 **** 0.06
5398 H 69.2561544645041 51.29073490922447 65.20939041279561 H 0.0 **** 0.06
5399 H 67.85705225551919 50.44706327778244 65.91663097631864 H 0.0 **** 0.06
5400 H 68.42945672376035 50.01111211649446 64.28816981816045 H 0.0 **** 0.06
5401 C 16.221842189654172 24.639024366056162 46.63661185115176 C 0.0 **** -0.24
5402 H 16.37806134445861 25.71710548220443 46.66830608523134 H 0.0 **** 0.06
5403 H 16.40984503224164 24.21604234917882 47.62394262469407 H 0.0 **** 0.06
5404 H 16.905253818756254 24.194435676771207 45.91411739660562 H 0.0 **** 0.06
5405 H 15.193388636627517 24.430312835499564 46.341527690332136 H 0.0 **** 0.06
5406 C 87.17458568196366 108.5553745594702 48.425252042795826 C 0.0 **** -0.24
5407 H 86.35601137299639 109.21976149471794 48.70142037277381 H 0.0 **** 0.06
5408 H 87.51136454828844 108.79530602615536 47.41638050249939 H 0.0 **** 0.06
5409 H 86.82956836609057 107.52225076548788 48.45810184637753 H 0.0 **** 0.06
5410 H 88.00069082368441 108.68564616455556 49.12451414043919 H 0.0 **** 0.06
5411 C 44.94697009734829 12.917014655682635 100.01571248845602 C 0.0 **** -0.24
5412 H 45.422598761502115 13.68493253303852 99.40520745384964 H 0.0 **** 0.06
5413 H 43.91868931862637 13.208607809770399 100.22882025716848 H 0.0 **** 0.06
5414 H 45.49519008309776 12.806892392925306 100.95213700231568 H 0.0 **** 0.06
5415 H 44.95309854679599 11.969258245072936 99.47736214573666 H 0.0 **** 0.06
5416 C 90.85888138098036 53.32454588890936 49.421141610490565 C 0.0 **** -0.24
5417 H 90.01642817072756 52.83403616918478 48.933937703972845 H 0.0 **** 0.06
5418 H 91.51222810553797 52.57126838764184 49.86200321456522 H 0.0 **** 0.06
5419 H 90.4899190668158 53.988690731603704 50.202944858499734 H 0.0 **** 0.06
5420 H 91.41667914015189 53.903311607571986 48.68528310439402 H 0.0 **** 0.06
5421 C 23.470510793024573 25.4521833523346 11.656694574379415 C 0.0 **** -0.24
5422 H 23.263429901389088 26.483329973338698 11.942792474508416 H 0.0 **** 0.06
5423 H 24.306316707567134 25.4307077978051 10.957532844103154 H 0.0 **** 0.06
5424 H 22.588007263511486 25.02189733725004 11.183191319911945 H 0.0 **** 0.06
5425 H 23.723975008391818 24.873508222654607 12.545358675902904 H 0.0 **** 0.06
5426 C 79.72114387554149 50.31911772364958 47.046050723883354 C 0.0 **** -0.24
5427 H 78.64333534541504 50.45557339756831 47.13547943295788 H 0.0 **** 0.06
5428 H 79.98606763367694 49.310905468507116 47.366527521288276 H 0.0 **** 0.06
5429 H 80.23304819017045 51.046605910120725 47.67478969992254 H 0.0 **** 0.06
5430 H 80.02071469738527 50.461066846434285 46.008202671912215 H 0.0 **** 0.06
5431 C 8.37039925011449 73.99165166111308 88.86344809715013 C 0.0 **** -0.24
5432 H 7.937438386595131 73.4632967060993 88.01396660708508 H 0.0 **** 0.06
5433 H 8.780318719657332 74.94424729575084 88.5266506974504 H 0.0 **** 0.06
5434 H 9.166568838158105 73.387536606357 89.29959359885197 H 0.0 **** 0.06
5435 H 7.5991087809517985 74.17011745641909 89.61167383850358 H 0.0 **** 0.06
5436 C 40.11004045781845 42.29068877944052 13.37356913078139 C 0.0 **** -0.24
5437 H 40.01639876459265 43.32480262561401 13.706628733022882 H 0.0 **** 0.06
5438 H 39.54798752124349 41.64079026120417 14.044451600605896 H 0.0 **** 0.06
5439 H 41.16056171422151 42.001502297125704 13.38311337508847 H 0.0 **** 0.06
5440 H 39.71544822025852 42.19743463740787 12.36249028919832 H 0.0 **** 0.06
5441 C 68.6183271697151 47.72171264124424 77.3863916709335 C 0.0 **** -0.24
5442 H 68.19446144501285 47.66285566006388 78.38893322724795 H 0.0 **** 0.06
5443 H 68.7471142674715 46.714694201877904 76.98795513266438 H 0.0 **** 0.06
5444 H 69.58554819645508 48.22237537207906 77.42919557526326 H 0.0 **** 0.06
5445 H 67.94532967998768 48.284712079368944 76.74009154729092 H 0.0 **** 0.06
5446 C 39.727664018363384 82.31790884479271 48.983425299043084 C 0.0 **** -0.24
5447 H 38.93237127977858 81.7192766914233 48.53878061966601 H 0.0 **** 0.06
5448 H 39.29668751465363 83.20641377201098 49.44596412065158 H 0.0 **** 0.06
5449 H 40.43360735546122 82.61697030062567 48.208733033808564 H 0.0 **** 0.06
5450 H 40.24520011227389 81.7282864945805 49.739360932022514 H 0.0 **** 0.06
5451 C 73.22908013047362 64.21841368930214 36.043457501084106 C 0.0 **** -0.24
5452 H 74.00609346878869 63.73170337342208 35.453003216812306 H 0.0 **** 0.06
5453 H 73.52132189262733 65.24788604632255 36.25102746974966 H 0.0 **** 0.06
5454 H 73.09704588340138 63.68070914615271 36.982520150666915 H 0.0 **** 0.06
5455 H 72.29252183225219 64.21218706182742 35.48523113044496 H 0.0 **** 0.06
5456 C 17.591291190447237 70.02388979740587 44.38925206170978 C 0.0 **** -0.24
5457 H 17.745441514513743 69.46020317254187 45.30847066948547 H 0.0 **** 0.06
5458 H 18.45489848681808 70.66471388193776 44.20667090656235 H 0.0 **** 0.06
5459 H 16.697050030497508 70.63933882783925 44.48611840527013 H 0.0 **** 0.06
5460 H 17.468256117811734 69.33314199272075 43.55457023775915 H 0.0 **** 0.06
5461 C 87.07382455486955 46.607896826684 44.481694102585124 C 0.0 **** -0.24
5462 H 86.68030244665212 47.5868887689069 44.757683337417404 H 0.0 **** 0.06
5463 H 86.6347587904023 45.84596753056695 45.12682427173979 H 0.0 **** 0.06
5464 H 88.15625078304917 46.60511801334937 44.5993778878902 H 0.0 **** 0.06
5465 H 86.81937806213224 46.394320251195296 43.44340661506001 H 0.0 **** 0.06
5466 C 107.20168897810134 15.522556068142976 2.7993836046791216 C 0.0 **** -0.24
5467 H 107.66821137495548 16.32403778449674 3.3711210578236717 H 0.0 **** 0.06
5468 H 106.4273800632175 15.938854164121409 2.154221212706716 H 0.0 **** 0.06
5469 H 106.75580474784091 14.800467154037179 3.483675746536335 H 0.0 **** 0.06
5470 H 107.95638559417134 15.02609642218357 2.187919140137666 H 0.0 **** 0.06
5471 C 53.412141118713635 55.388719416813956 68.97787965459406 C 0.0 **** -0.24
5472 H 52.65246535539069 54.6180316125122 68.85322881404664 H 0.0 **** 0.06
5473 H 54.39723684399701 54.96061929134086 68.78988868784205 H 0.0 **** 0.06
5474 H 53.37298425769842 55.77536669690306 69.99636259307596 H 0.0 **** 0.06
5475 H 53.22671754566204 56.199704908306245 68.27375929364445 H 0.0 **** 0.06
5476 C 56.64355891582907 20.935383896058056 101.6633086213191 C 0.0 **** -0.24
5477 H 55.9366393927885 20.195432348818287 101.28830815674917 H 0.0 **** 0.06
5478 H 56.90540835670702 21.62647813733855 100.86167995596307 H 0.0 **** 0.06
5479 H 57.543532697801545 20.43054775201719 102.01630237180946 H 0.0 **** 0.06
5480 H 56.190185701159365 21.487224649288237 102.48646920901763 H 0.0 **** 0.06
5481 C 31.167566154727126 81.27933836007327 31.871490265683803 C 0.0 **** -0.24
5482 H 32.184942345045556 81.43093686574093 31.510824985340093 H 0.0 **** 0.06
5483 H 30.927096195409547 82.04301116639999 32.61085680954528 H 0.0 **** 0.06
5484 H 31.086172741832797 80.29225434174401 32.3275737662637 H 0.0 **** 0.06
5485 H 30.470986092991723 81.35180997823542 31.03514761056738 H 0.0 **** 0.06
5486 C 65.75475762975618 76.90921693876896 15.487420839515522 C 0.0 **** -0.24
5487 H 64.71706265060331 77.0615976331466 15.189727801687354 H 0.0 **** 0.06
5488 H 66.21986873788025 76.18141675784427 14.822754455357128 H 0.0 **** 0.06
5489 H 65.78660835596426 76.5404642047551 16.51246464159172 H 0.0 **** 0.06
5490 H 66.29272680702432 77.85521440563022 15.424908227649084 H 0.0 **** 0.06
5491 C 94.28971258218871 73.25242978177128 34.36416025573651 C 0.0 **** -0.24
5492 H 93.78506484449184 74.16269370803907 34.68862308824687 H 0.0 **** 0.06
5493 H 94.37576526393775 73.2543619319824 33.27692010962099 H 0.0 **** 0.06
5494 H 93.71224447681675 72.38499672567409 34.681042340548004 H 0.0 **** 0.06
5495 H 95.28427200627857 73.21019041241036 34.807738017481824 H 0.0 **** 0.06
5496 C 31.29162429958319 10.380646249911024 2.9315533665215128 C 0.0 **** -0.24
5497 H 30.868543664167106 9.852987994978662 2.075943365435876 H 0.0 **** 0.06
5498 H 30.739921066873478 10.11239865117389 3.8325709219884345 H 0.0 **** 0.06
5499 H 31.21888703562371 11.455958907437235 2.76702716862863 H 0.0 **** 0.06
5500 H 32.33819528252644 10.100990574103719 3.048663147894274 H 0.0 **** 0.06
5501 C 4.841518425485447 29.882290410278074 100.23701915653834 C 0.0 **** -0.24
5502 H 4.8535183806266105 29.00487339385279 100.88403172969544 H 0.0 **** 0.06
5503 H 4.848015604872728 30.78462700063801 100.84916323341992 H 0.0 **** 0.06
5504 H 3.941432474312222 29.866591894847375 99.62195271261692 H 0.0 **** 0.06
5505 H 5.721544976693707 29.871114547688705 99.5945837959153 H 0.0 **** 0.06
5506 C 90.47712718857674 52.99893478411687 101.73907776695128 C 0.0 **** -0.24
5507 H 90.635821764958 52.918239154872936 102.81497700353125 H 0.0 **** 0.06
5508 H 91.42888002409146 53.18744154752977 101.24413179390531 H 0.0 **** 0.06
5509 H 89.79122347806374 53.82103502343472 101.5351288760392 H 0.0 **** 0.06
5510 H 90.05013692735248 52.067788076706904 101.36462074367583 H 0.0 **** 0.06
5511 C 61.93898304063218 17.30896922306448 92.43149432012115 C 0.0 **** -0.24
5512 H 61.142959892855146 17.208469977365297 93.17024460447281 H 0.0 **** 0.06
5513 H 62.78234362482718 17.83724278297494 92.87530598562734 H 0.0 **** 0.06
5514 H 61.56805729269506 17.87021075260698 91.57349844035487 H 0.0 **** 0.06
5515 H 62.25989813934795 16.318613474855354 92.10668527827544 H 0.0 **** 0.06
5516 C 38.82773654158916 56.86737301077238 89.80074376673696 C 0.0 **** -0.24
5517 H 38.57145538879121 57.093663245060355 90.83583920880551 H 0.0 **** 0.06
5518 H 37.915745842789676 56.67071088671642 89.23617854566461 H 0.0 **** 0.06
5519 H 39.470973796391036 55.98830868703807 89.76983130224659 H 0.0 **** 0.06
5520 H 39.35014680268824 57.71681727633255 89.36257971007467 H 0.0 **** 0.06
5521 C 96.8020688912842 38.38458768316315 86.7577704183 C 0.0 **** -0.24
5522 H 97.0752636015965 37.40257609198375 87.14580884473158 H 0.0 **** 0.06
5523 H 95.72792051355987 38.53233621473345 86.87120990315442 H 0.0 **** 0.06
5524 H 97.06872566143079 38.44421565105992 85.7025232714516 H 0.0 **** 0.06
5525 H 97.33601207496966 39.155360382801376 87.312938816633 H 0.0 **** 0.06
5526 C 44.526029025353445 102.91342481173264 69.42451133605309 C 0.0 **** -0.24
5527 H 44.31935518595122 101.86813893750134 69.65248324046138 H 0.0 **** 0.06
5528 H 44.90833122305836 102.99470107493218 68.40701830927455 H 0.0 **** 0.06
5529 H 45.268930220249544 103.29738564379127 70.12403387680071 H 0.0 **** 0.06
5530 H 43.60807950877767 103.49417981277895 69.51558922624712 H 0.0 **** 0.06
5531 C 27.21620349124231 58.354567001785256 90.69303054325223 C 0.0 **** -0.24
5532 H 26.686897684196765 58.6414710361596 89.78509979847075 H 0.0 **** 0.06
5533 H 28.266244477792938 58.63229427258628 90.60538170878016 H 0.0 **** 0.06
5534 H 27.13629110843624 57.276850880621225 90.8350651625828 H 0.0 **** 0.06
5535 H 26.774204208799617 58.86700699089633 91.54862498527388 H 0.0 **** 0.06
5536 C 92.21606013122545 10.557533797816689 50.086538036590326 C 0.0 **** -0.24
5537 H 92.93005047034069 9.75457825569977 49.901908457690105 H 0.0 **** 0.06
5538 H 91.25525606997041 10.297298627119417 49.640986537235584 H 0.0 **** 0.06
5539 H 92.58496919135695 11.48144643795743 49.642732526045265 H 0.0 **** 0.06
5540 H 92.093386028221 10.693689539495153 51.16148203085768 H 0.0 **** 0.06
5541 C 0.8186650003349598 98.97555850286568 107.44525619659385 C 0.0 **** -0.24
5542 H 0.7634083129406548 99.44296426396352 106.46151716927864 H 0.0 **** 0.06
5543 H 0.3164302025978998 98.00836005896355 107.41604550772831 H 0.0 **** 0.06
5544 H 0.3304067090026024 99.61700073136495 108.17889273467517 H 0.0 **** 0.06
5545 H 1.8626052587822954 98.83577418275075 107.72250851975053 H 0.0 **** 0.06
5546 C 39.29305141767165 74.92180961566426 48.7408257403589 C 0.0 **** -0.24
5547 H 39.03414011067795 75.9287332480826 49.069619966531434 H 0.0 **** 0.06
5548 H 38.837396337705655 74.19325653115611 49.41161760664971 H 0.0 **** 0.06
5549 H 40.37626160157629 74.80270073037268 48.755577578896606 H 0.0 **** 0.06
5550 H 38.92371882788305 74.76465061606154 47.72753884215308 H 0.0 **** 0.06
5551 C 72.95862890135845 28.58482439223493 0.5657348931254376 C 0.0 **** -0.24
5552 H 73.51191090626503 29.03947149058456 -0.2557886206454043 H 0.0 **** 0.06
5553 H 73.34010262116155 28.96394895481425 1.5140656658924456 H 0.0 **** 0.06
5554 H 73.08164751613282 27.501974122771102 0.5298793309329994 H 0.0 **** 0.06
5555 H 71.90193067333593 28.834151475283008 0.4738998257130618 H 0.0 **** 0.06
5556 C 3.9484054093530307 37.93629579573974 97.93718281752527 C 0.0 **** -0.24
5557 H 3.7195357094924955 36.87037528377792 97.93708767338325 H 0.0 **** 0.06
5558 H 3.0500578847021185 38.499934213210224 98.19319732790531 H 0.0 **** 0.06
5559 H 4.294132097868314 38.2338184211109 96.94705493573204 H 0.0 **** 0.06
5560 H 4.727556563766861 38.141025670269244 98.67066558157289 H 0.0 **** 0.06
5561 C 90.30331272540117 48.00728117383767 107.99019394587725 C 0.0 **** -0.24
5562 H 89.344744325353 48.52593749357351 107.9700416320274 H 0.0 **** 0.06
5563 H 90.43665623136098 47.45316287007529 107.06036582043623 H 0.0 **** 0.06
5564 H 90.32350020214598 47.31542219934545 108.83245311446899 H 0.0 **** 0.06
5565 H 91.10794420215313 48.73554221306421 108.09889069573677 H 0.0 **** 0.06
5566 C 92.09671640840507 63.73651171850433 2.2621750142271253 C 0.0 **** -0.24
5567 H 92.18690981151859 64.69675702167423 2.7706777228889905 H 0.0 **** 0.06
5568 H 91.06248028009267 63.39654613767024 2.3104541069102993 H 0.0 **** 0.06
5569 H 92.74292168533808 63.006665706274745 2.7504540636313664 H 0.0 **** 0.06
5570 H 92.39501396521494 63.84755541986301 1.2196843777507524 H 0.0 **** 0.06
5571 C 76.59667134241174 94.76429927261961 51.60008235901154 C 0.0 **** -0.24
5572 H 77.06242614290419 94.4437300095093 50.668949926323705 H 0.0 **** 0.06
5573 H 75.5125004254768 94.7319134863643 51.49407562456793 H 0.0 **** 0.06
5574 H 76.90926850452418 95.78303921223409 51.83111667193984 H 0.0 **** 0.06
5575 H 76.90346566263727 94.09898786932746 52.40709527189364 H 0.0 **** 0.06
5576 C 6.26195182638466 26.903966619395714 10.735767209250852 C 0.0 **** -0.24
5577 H 5.563440773632202 26.106381008743305 10.985687772287804 H 0.0 **** 0.06
5578 H 6.4697905367891195 27.49754555844779 11.625598057625467 H 0.0 **** 0.06
5579 H 5.825114516796091 27.541081329929803 9.967164032249087 H 0.0 **** 0.06
5580 H 7.190108675523035 26.46972007265329 10.36280646732834 H 0.0 **** 0.06
5581 C 99.6924298759593 54.134790564314805 100.06677701189054 C 0.0 **** -0.24
5582 H 100.17942137400553 54.04207259772147 99.09636911288817 H 0.0 **** 0.06
5583 H 98.61049837550672 54.125495566726244 99.93208206217824 H 0.0 **** 0.06
5584 H 99.99287934536312 55.0719264114415 100.53618027123377 H 0.0 **** 0.06
5585 H 99.98692040896168 53.29966768137015 100.70247660126194 H 0.0 **** 0.06
5586 C 104.11669617846934 15.889227619279552 93.62730361237234 C 0.0 **** -0.24
5587 H 104.78051202245439 15.039133303959261 93.46527547864082 H 0.0 **** 0.06
5588 H 104.62149363036039 16.80659154600454 93.32516655720326 H 0.0 **** 0.06
5589 H 103.85490307297903 15.94802440958091 94.6834741195803 H 0.0 **** 0.06
5590 H 103.21092627442661 15.760493531000748 93.03441466922155 H 0.0 **** 0.06
5591 C 50.26091387610296 109.39722157810294 32.94233817728548 C 0.0 **** -0.24
5592 H 51.26670058991732 109.48153061574888 32.530618682934914 H 0.0 **** 0.06
5593 H 49.64961966360386 110.22251633215829 32.57789779317946 H 0.0 **** 0.06
5594 H 50.3103704823198 109.43264963183671 34.03014501080364 H 0.0 **** 0.06
5595 H 49.819712945734125 108.45130993354945 32.62905597887849 H 0.0 **** 0.06
5596 C 50.14777068012636 62.44016281015064 70.22618702370258 C 0.0 **** -0.24
5597 H 49.70665159447169 63.15642781779718 69.5330843978367 H 0.0 **** 0.06
5598 H 49.497770785141505 62.327119644210256 71.09391869256228 H 0.0 **** 0.06
5599 H 51.1249144321267 62.80022497195387 70.54686934428034 H 0.0 **** 0.06
5600 H 50.26110072173478 61.47662840440637 69.72813313779022 H 0.0 **** 0.06
5601 C 63.022489590665415 97.463287822934 17.92380276695536 C 0.0 **** -0.24
5602 H 63.275848277081664 97.87354730983758 18.900845418976985 H 0.0 **** 0.06
5603 H 61.989918417952865 97.71538850992837 17.68023156811722 H 0.0 **** 0.06
5604 H 63.13624975754965 96.37945182438322 17.944442880580937 H 0.0 **** 0.06
5605 H 63.687385162208656 97.88357945655831 17.16915470922197 H 0.0 **** 0.06
5606 C 70.31547805962413 3.4011296137066296 102.03610637061335 C 0.0 **** -0.24
5607 H 70.04145988645206 4.423674485320419 102.2951678970827 H 0.0 **** 0.06
5608 H 69.44730272966595 2.7515132593293288 102.15599861836107 H 0.0 **** 0.06
5609 H 71.1166521828153 3.0613400376274313 102.69292214647923 H 0.0 **** 0.06
5610 H 70.65563965907 3.3669198533398514 101.00139403738883 H 0.0 **** 0.06
5611 C 4.303217249168085 31.70861710481006 55.05760100288448 C 0.0 **** -0.24
5612 H 4.37996879936702 30.629072251208527 54.92763955990661 H 0.0 **** 0.06
5613 H 5.20893755831861 32.18427483269227 54.68012867474483 H 0.0 **** 0.06
5614 H 4.184762978521064 31.93970752231786 56.11558096550766 H 0.0 **** 0.06
5615 H 3.439862231215727 32.07960562415457 54.50498313346165 H 0.0 **** 0.06
5616 C 98.93256052640456 7.911108563846232 95.45631716647866 C 0.0 **** -0.24
5617 H 98.98060418659938 8.706050765649907 96.20165980499894 H 0.0 **** 0.06
5618 H 99.84622463916311 7.31835648816668 95.49924411709846 H 0.0 **** 0.06
5619 H 98.82886217440718 8.34905351351411 94.46364414449594 H 0.0 **** 0.06
5620 H 98.07409869865376 7.27257269180472 95.66321826250427 H 0.0 **** 0.06
5621 C 60.68965154999529 50.18398205676357 78.095562852536 C 0.0 **** -0.24
5622 H 61.49674027877191 50.14708181857242 78.82614819366748 H 0.0 **** 0.06
5623 H 60.77752801534035 49.336823350142566 77.41523298900033 H 0.0 **** 0.06
5624 H 60.754343103213756 51.11294442313712 77.52946677917697 H 0.0 **** 0.06
5625 H 59.73072054415276 50.138518053002485 78.61100457937046 H 0.0 **** 0.06
5626 C 66.08039334085782 80.26526867925345 109.26054258128677 C 0.0 **** -0.24
5627 H 67.01402679448802 80.24364461764682 109.82161635549 H 0.0 **** 0.06
5628 H 65.64471202109854 81.26322917159438 109.3170894486634 H 0.0 **** 0.06
5629 H 65.38461500112243 79.54113048352208 109.68452872017895 H 0.0 **** 0.06
5630 H 66.27683245415454 80.01329190269286 108.2187713944252 H 0.0 **** 0.06
5631 C 57.095820823294524 85.78269374949666 80.59436172983774 C 0.0 **** -0.24
5632 H 56.88795265488323 84.81243591477283 80.143369027943 H 0.0 **** 0.06
5633 H 58.17132070471522 85.96220056992013 80.58964881642947 H 0.0 **** 0.06
5634 H 56.73014185589914 85.79064027209151 81.62078053818901 H 0.0 **** 0.06
5635 H 56.59350464245878 86.5632920388575 80.02367741214132 H 0.0 **** 0.06
5636 C 72.31803987106551 37.896574977455884 66.36801869192442 C 0.0 **** -0.24
5637 H 72.66016270058867 38.008205950047255 67.3967204663436 H 0.0 **** 0.06
5638 H 71.34062764307981 37.41204590762365 66.36067824306167 H 0.0 **** 0.06
5639 H 73.03025232591659 37.28742100308065 65.81196411841057 H 0.0 **** 0.06
5640 H 72.23971457494113 38.8796020232225 65.90300055340839 H 0.0 **** 0.06
5641 C 30.32772008918556 42.90942451466276 68.69983650771671 C 0.0 **** -0.24
5642 H 30.751137758862683 43.908355937536555 68.80394388931414 H 0.0 **** 0.06
5643 H 29.268004841381156 42.98833236272776 68.45671304159418 H 0.0 **** 0.06
5644 H 30.446475939841605 42.36572884646398 69.63687648246427 H 0.0 **** 0.06
5645 H 30.84523131848141 42.377426861702986 67.90244048462513 H 0.0 **** 0.06
5646 C 26.947983125243212 84.76356380576965 62.34056468663172 C 0.0 **** -0.24
5647 H 26.003692480581634 84.72990108939197 62.885052447600074 H 0.0 **** 0.06
5648 H 26.7589489693124 85.0369478022647 61.30276551924692 H 0.0 **** 0.06
5649 H 27.423688527703916 83.78362823283791 62.378240948038496 H 0.0 **** 0.06
5650 H 27.60413154519844 85.50376461583332 62.7988144993717 H 0.0 **** 0.06
5651 C 85.93127815360755 100.79517423967849 86.72522227464165 C 0.0 **** -0.24
5652 H 85.72710571923658 101.60000093344354 86.01879217061357 H 0.0 **** 0.06
5653 H 86.61909404261966 100.08089564369527 86.27315786451915 H 0.0 **** 0.06
5654 H 84.99996632617297 100.29126126582145 86.98096196134951 H 0.0 **** 0.06
5655 H 86.37930754246557 101.21011560066557 87.62859719188688 H 0.0 **** 0.06
5656 C 40.87229195198701 40.93254519110309 50.33926848842842 C 0.0 **** -0.24
5657 H 41.736133911380264 40.75765326431869 50.979156490753894 H 0.0 **** 0.06
5658 H 39.97285901442088 40.9940810840707 50.95118559372423 H 0.0 **** 0.06
5659 H 40.773443796133634 40.11010693106212 49.63018157040821 H 0.0 **** 0.06
5660 H 41.00736755843437 41.86704061919659 49.79457339522298 H 0.0 **** 0.06
5661 C 96.55059869336685 23.739699470894536 87.17001146691928 C 0.0 **** -0.24
5662 H 96.53030947325863 24.573590012917848 87.87301848609377 H 0.0 **** 0.06
5663 H 96.0755043719293 24.04180242093556 86.23623039110987 H 0.0 **** 0.06
5664 H 96.01102540394317 22.89354500305475 87.59510690487616 H 0.0 **** 0.06
5665 H 97.58343369475824 23.45254680231835 86.97720072328485 H 0.0 **** 0.06
5666 C 39.43283391291294 32.98934680280735 31.010606554345202 C 0.0 **** -0.24
5667 H 39.032714411215096 32.00403040009584 30.770706880043974 H 0.0 **** 0.06
5668 H 39.8920583808397 32.96387409612338 31.99858877580894 H 0.0 **** 0.06
5669 H 38.62417390680605 33.72058643596367 31.004165625830552 H 0.0 **** 0.06
5670 H 40.18077130517253 33.26829717226518 30.26880861587574 H 0.0 **** 0.06
5671 C 91.64772914378608 61.5750770623502 17.726488746100102 C 0.0 **** -0.24
5672 H 91.72252760267162 61.35958505470168 18.792872027634985 H 0.0 **** 0.06
5673 H 91.13951661745136 60.75018180281086 17.225277419931132 H 0.0 **** 0.06
5674 H 92.64715864245522 61.69398031941746 17.30855390142247 H 0.0 **** 0.06
5675 H 91.08034244633649 62.493680510567984 17.581206804381623 H 0.0 **** 0.06
5676 C 86.45692214395233 64.96069539133885 84.10237010934414 C 0.0 **** -0.24
5677 H 86.3680705622461 66.04203681344745 83.99641255007849 H 0.0 **** 0.06
5678 H 86.81410264313679 64.53228684314433 83.16557658915558 H 0.0 **** 0.06
5679 H 85.4815842356092 64.5393833425619 84.34616303663915 H 0.0 **** 0.06
5680 H 87.16267914097476 64.73095515914486 84.90038159425471 H 0.0 **** 0.06
5681 C 87.8745660214982 100.8412890952782 23.988269180715974 C 0.0 **** -0.24
5682 H 88.87285234728637 100.51220945676857 24.279540439397465 H 0.0 **** 0.06
5683 H 87.53921307274356 100.26196922718346 23.127770037894308 H 0.0 **** 0.06
5684 H 87.90325775702263 101.89941669625732 23.726506557311552 H 0.0 **** 0.06
5685 H 87.1860837677807 100.69135275935189 24.81954176844296 H 0.0 **** 0.06
5686 C 86.01417643314952 71.20444993380141 108.33538260937263 C 0.0 **** -0.24
5687 H 85.51337747312337 72.07902569540619 108.7503217495005 H 0.0 **** 0.06
5688 H 85.92029945667315 71.2127910804353 107.24944964486932 H 0.0 **** 0.06
5689 H 85.55554690555064 70.29915038249726 108.7337186054927 H 0.0 **** 0.06
5690 H 87.07006339732607 71.22757091695792 108.60892987994865 H 0.0 **** 0.06
5691 C 59.31788289193466 75.41378572236033 26.635832429759034 C 0.0 **** -0.24
5692 H 58.91810876556 76.03081909734118 27.440977982047485 H 0.0 **** 0.06
5693 H 58.90826884629419 74.40670297704594 26.713714001201822 H 0.0 **** 0.06
5694 H 60.40403558255488 75.37235985803049 26.715882922173734 H 0.0 **** 0.06
5695 H 59.040397765216824 75.8459786130545 25.674983263982256 H 0.0 **** 0.06
5696 C 91.06260475908088 27.544975929586883 23.4490016146763 C 0.0 **** -0.24
5697 H 91.46536424014172 28.475918364905993 23.049998050279935 H 0.0 **** 0.06
5698 H 89.98027301332087 27.628152244112698 23.54147592009075 H 0.0 **** 0.06
5699 H 91.49811836934896 27.351528371216943 24.429066294633806 H 0.0 **** 0.06
5700 H 91.3079336157544 26.725257954345835 22.773891959662297 H 0.0 **** 0.06
5701 C 12.982208427103217 21.093901005034724 88.67028993636046 C 0.0 **** -0.24
5702 H 12.088140079839178 20.48715704895625 88.81449269239141 H 0.0 **** 0.06
5703 H 13.868022515474252 20.486640541907548 88.86240215591235 H 0.0 **** 0.06
5704 H 12.96323739634812 21.937484951406987 89.35937848367409 H 0.0 **** 0.06
5705 H 13.009175577778265 21.461936753534843 87.64438967268366 H 0.0 **** 0.06
5706 C 22.074269104298736 36.914651054893625 16.570499509637614 C 0.0 **** -0.24
5707 H 22.756093687610388 37.76322334739277 16.618040245793168 H 0.0 **** 0.06
5708 H 21.26968948373576 37.054449069017565 17.293960027551634 H 0.0 **** 0.06
5709 H 22.616681172122014 35.99841782541563 16.803133700720593 H 0.0 **** 0.06
5710 H 21.652345332030166 36.84256981833866 15.56779092002293 H 0.0 **** 0.06
5711 C 60.10892660517845 2.1170469754884635 64.15162862887848 C 0.0 **** -0.24
5712 H 60.65405776090711 1.9334945221698945 65.07759320247592 H 0.0 **** 0.06
5713 H 59.50731673389026 1.2416516150269814 63.90571722253878 H 0.0 **** 0.06
5714 H 60.81794623183478 2.309087515966908 63.34512285757313 H 0.0 **** 0.06
5715 H 59.458229834385094 2.9816314855945336 64.27762916700533 H 0.0 **** 0.06
5716 C 106.99271273841578 32.46478617852377 11.917864995689605 C 0.0 **** -0.24
5717 H 106.25459109249587 31.782864451477927 12.339046683742772 H 0.0 **** 0.06
5718 H 106.96410634635245 32.402772379260306 10.82954340894307 H 0.0 **** 0.06
5719 H 107.98598737230742 32.187846316722215 12.271671010473039 H 0.0 **** 0.06
5720 H 106.76531502435114 33.48370634007622 12.230525875348114 H 0.0 **** 0.06
5721 C 48.841849146114065 45.1860047239017 26.166795982652488 C 0.0 **** -0.24
5722 H 49.461789267142805 45.01409050394963 25.286710971493775 H 0.0 **** 0.06
5723 H 48.079491468026596 45.93013902007485 25.934617561202657 H 0.0 **** 0.06
5724 H 49.465008995234385 45.547379303188904 26.984577162783282 H 0.0 **** 0.06
5725 H 48.36175111344961 44.252788876607895 26.460613792723535 H 0.0 **** 0.06
5726 C 82.5097442526537 78.80626909663604 22.7092978391795 C 0.0 **** -0.24
5727 H 82.59055797890677 77.76107707038034 22.409085111427146 H 0.0 **** 0.06
5728 H 82.24928291236 78.8608865670825 23.76666141054406 H 0.0 **** 0.06
5729 H 81.73401379900238 79.29376853389124 22.11801831899902 H 0.0 **** 0.06
5730 H 83.46297910658673 79.30604656551995 22.542188378546825 H 0.0 **** 0.06
5731 C 40.69020472266213 107.73492815595382 102.16359193990456 C 0.0 **** -0.24
5732 H 40.4681398211021 107.86326736985593 101.10449512768378 H 0.0 **** 0.06
5733 H 39.77513454403114 107.85621925341783 102.74330471589133 H 0.0 **** 0.06
5734 H 41.41993084631444 108.482567891901 102.47518060358982 H 0.0 **** 0.06
5735 H 41.09767848425423 106.73860557507031 102.3310740119336 H 0.0 **** 0.06
5736 C 11.65682946303491 36.42012146317472 87.80653652885039 C 0.0 **** -0.24
5737 H 11.793184541036538 35.43606152937599 87.35920985687113 H 0.0 **** 0.06
5738 H 10.700912113225513 36.45216775997682 88.33048688841501 H 0.0 **** 0.06
5739 H 11.668274701072306 37.17891990665527 87.02419786499541 H 0.0 **** 0.06
5740 H 12.464946496805226 36.61333665669099 88.5122515051196 H 0.0 **** 0.06
5741 C 56.71966534314464 53.38418421405299 66.89953537320912 C 0.0 **** -0.24
5742 H 57.02060922940882 52.33630210868341 66.88579604670417 H 0.0 **** 0.06
5743 H 56.32360239019036 53.63544398151981 67.88366521729174 H 0.0 **** 0.06
5744 H 55.95187716697063 53.55075350252662 66.1445818599228 H 0.0 **** 0.06
5745 H 57.58453013179437 54.01178504714221 66.68370448443841 H 0.0 **** 0.06
5746 C 43.146406925324754 38.807466672885084 29.81578033153329 C 0.0 **** -0.24
5747 H 42.370572597572135 38.363372618981145 30.440198041679167 H 0.0 **** 0.06
5748 H 42.74256481121887 39.6807544708123 29.301675354515737 H 0.0 **** 0.06
5749 H 43.4825826899426 38.0762405171638 29.08008197610215 H 0.0 **** 0.06
5750 H 43.98702658279504 39.10827425202734 30.440070483478564 H 0.0 **** 0.06
5751 C 19.779855932051476 103.84421427176936 88.63792312156079 C 0.0 **** -0.24
5752 H 18.893667664270822 103.28966415624593 88.32803858586178 H 0.0 **** 0.06
5753 H 20.5933774317229 103.64762472761825 87.93862758158681 H 0.0 **** 0.06
5754 H 20.075741959905656 103.52794687704133 89.63814422341326 H 0.0 **** 0.06
5755 H 19.556150653187558 104.91088203477035 88.64482844463913 H 0.0 **** 0.06
5756 C 63.015048844423106 73.42965360351758 24.6703940247927 C 0.0 **** -0.24
5757 H 61.95683393565261 73.2884920775677 24.88999249281244 H 0.0 **** 0.06
5758 H 63.60195417058961 73.22626384929126 25.56659135436763 H 0.0 **** 0.06
5759 H 63.185820031396176 74.45676127912827 24.349822929550157 H 0.0 **** 0.06
5760 H 63.315568667845426 72.74588256266176 23.87675818673938 H 0.0 **** 0.06
5761 C 88.05122218528192 103.638722108937 83.29500104167528 C 0.0 **** -0.24
5762 H 88.46153055624558 104.25285965922421 84.0969237299187 H 0.0 **** 0.06
5763 H 87.47094444785535 102.82160624649602 83.72438002467646 H 0.0 **** 0.06
5764 H 88.86635495311833 103.23161372585449 82.69735887322301 H 0.0 **** 0.06
5765 H 87.40702550758814 104.25025713111945 82.66274440812705 H 0.0 **** 0.06
5766 C 77.589230359311 71.90362246960854 0.23432832380933633 C 0.0 **** -0.24
5767 H 77.06139718135532 70.95571956609189 0.3367737303428271 H 0.0 **** 0.06
5768 H 77.34287626840063 72.35418160404271 -0.7273072663008975 H 0.0 **** 0.06
5769 H 78.66425548265154 71.72867719413915 0.28896398932835154 H 0.0 **** 0.06
5770 H 77.28920711003404 72.57539267294828 1.0378497294517501 H 0.0 **** 0.06
5771 C 88.39610600162224 77.62405818005183 84.47462728443062 C 0.0 **** -0.24
5772 H 89.433025429939 77.6586473019807 84.80986539214405 H 0.0 **** 0.06
5773 H 87.74071882756152 77.93529378587229 85.28830776937268 H 0.0 **** 0.06
5774 H 88.14540155815305 76.60701868320393 84.17502295897492 H 0.0 **** 0.06
5775 H 88.26574456602474 78.29603597842987 83.62576059967864 H 0.0 **** 0.06
5776 C 73.32706972322683 32.74911761258343 69.77502556481204 C 0.0 **** -0.24
5777 H 73.24323394519297 32.53446838267425 70.84064001677297 H 0.0 **** 0.06
5778 H 73.53083533515877 33.810654034230964 69.63340324733468 H 0.0 **** 0.06
5779 H 72.39251855675639 32.488084095840776 69.27755945739432 H 0.0 **** 0.06
5780 H 74.14142423202469 32.16281366213872 69.34935165665786 H 0.0 **** 0.06
5781 C 32.33224237541671 46.158612930397126 107.91726247234091 C 0.0 **** -0.24
5782 H 32.761197683332625 45.17979210834698 108.13071734657436 H 0.0 **** 0.06
5783 H 31.291990351834443 46.177500766021645 108.24264202430265 H 0.0 **** 0.06
5784 H 32.38112804142139 46.34948534140481 106.84539925420067 H 0.0 **** 0.06
5785 H 32.89419764887191 46.9253370989234 108.44971353756586 H 0.0 **** 0.06
5786 C 65.97962517634835 89.52806029562316 85.97389654096672 C 0.0 **** -0.24
5787 H 65.77068325755118 90.02413196355239 85.02656555737951 H 0.0 **** 0.06
5788 H 66.59378092281918 88.64549270445656 85.7945727061813 H 0.0 **** 0.06
5789 H 65.04153913117102 89.22921059238858 86.44172481489217 H 0.0 **** 0.06
5790 H 66.51213927360686 90.21372515703578 86.6336005183113 H 0.0 **** 0.06
5791 C 25.871792846021094 87.01086988487441 88.62240359874512 C 0.0 **** -0.24
5792 H 26.91076629049067 87.13441200244336 88.92747961420648 H 0.0 **** 0.06
5793 H 25.309444467604834 86.54406431794064 89.43042381795568 H 0.0 **** 0.06
5794 H 25.827031326173284 86.37811816973363 87.73502452430888 H 0.0 **** 0.06
5795 H 25.4422295495591 87.98630971672316 88.39484842616739 H 0.0 **** 0.06
5796 C 102.55897626583715 53.993246244069724 77.16150552999306 C 0.0 **** -0.24
5797 H 102.31591702484565 54.77830009282753 77.87779704956172 H 0.0 **** 0.06
5798 H 102.16078195260883 53.04184605019342 77.51525524499043 H 0.0 **** 0.06
5799 H 103.64137033263955 53.91982694679273 77.05854666548684 H 0.0 **** 0.06
5800 H 102.1171845481424 54.23536931443429 76.19456013638886 H 0.0 **** 0.06
5801 C 52.8155215666523 79.91143319087223 44.38946964278941 C 0.0 **** -0.24
5802 H 53.838446235526646 80.18626402609053 44.6454441802461 H 0.0 **** 0.06
5803 H 52.70908631122388 78.82696803763456 44.43493169728433 H 0.0 **** 0.06
5804 H 52.587046580335475 80.25775433301975 43.381964473554504 H 0.0 **** 0.06
5805 H 52.1279498799557 80.37404175433774 45.09842057122839 H 0.0 **** 0.06
5806 C 38.24677744624576 26.89752650429051 99.9076508449985 C 0.0 **** -0.24
5807 H 39.30568333696216 26.68079835167623 99.76120575325263 H 0.0 **** 0.06
5808 H 37.664356375801994 25.99286046624411 99.73267105447925 H 0.0 **** 0.06
5809 H 37.93565388647843 27.672223537629748 99.20622975737632 H 0.0 **** 0.06
5810 H 38.085073414105125 27.24436362658986 100.92773889339124 H 0.0 **** 0.06
5811 C 55.81923483382448 14.62938395089417 97.74999915227781 C 0.0 **** -0.24
5812 H 55.71503520288104 15.00541966448083 98.76801706372756 H 0.0 **** 0.06
5813 H 55.79013093757487 15.463820173646042 97.04930020331427 H 0.0 **** 0.06
5814 H 55.00119462503645 13.942523379739178 97.53214449419073 H 0.0 **** 0.06
5815 H 56.7699816094663 14.105175947848071 97.65323448822237 H 0.0 **** 0.06
5816 C 58.16196123191921 36.661681612537365 4.132787435768591 C 0.0 **** -0.24
5817 H 57.69667633508922 36.51264411360651 5.107614444007595 H 0.0 **** 0.06
5818 H 57.842830743022176 37.62026354725623 3.7219099111536593 H 0.0 **** 0.06
5819 H 57.859869422578015 35.85920200923056 3.4599881507651276 H 0.0 **** 0.06
5820 H 59.24649419384343 36.65561966566875 4.242684577217858 H 0.0 **** 0.06
5821 C 96.54197045228071 82.53759015579169 62.24512390503725 C 0.0 **** -0.24
5822 H 96.82909737187379 82.80122811665024 61.22723686910575 H 0.0 **** 0.06
5823 H 95.48948940847134 82.77653423423675 62.39924485101325 H 0.0 **** 0.06
5824 H 97.15023062779824 83.10286052102236 62.95097645223531 H 0.0 **** 0.06
5825 H 96.70038014065256 81.47042214422333 62.40169557091221 H 0.0 **** 0.06
5826 C 91.7770375116678 18.47011410356265 27.915068451231605 C 0.0 **** -0.24
5827 H 91.18581050695252 17.55525916841657 27.943702374016183 H 0.0 **** 0.06
5828 H 91.72980933028873 18.963735916697033 28.8872078490497 H 0.0 **** 0.06
5829 H 91.37863796991064 19.13614485552239 27.149485194838746 H 0.0 **** 0.06
5830 H 92.81295799943706 18.226160773926722 27.681067715021697 H 0.0 **** 0.06
5831 C 103.24156616103033 109.02622232039795 71.70875314108014 C 0.0 **** -0.24
5832 H 102.96363004968401 108.74292469169339 70.69337594296607 H 0.0 **** 0.06
5833 H 102.37754924248071 108.91521110393353 72.36558816263431 H 0.0 **** 0.06
5834 H 103.57392066083764 110.06415967979305 71.71846787912364 H 0.0 **** 0.06
5835 H 104.04819961420785 108.3830346768301 72.05746058838233 H 0.0 **** 0.06
5836 C 77.54548078713805 89.02902059209805 12.252641912234239 C 0.0 **** -0.24
5837 H 77.1832775377548 88.13348168252827 12.757426742914198 H 0.0 **** 0.06
5838 H 78.43517157796487 89.39994886114425 12.764083510520884 H 0.0 **** 0.06
5839 H 76.7703230301313 89.79534443363548 12.270727877428516 H 0.0 **** 0.06
5840 H 77.79440045289078 88.7879788046468 11.219323613989562 H 0.0 **** 0.06
5841 C 25.910459190507282 24.03728240407412 60.35178962656771 C 0.0 **** -0.24
5842 H 25.554245666048615 23.164018941472932 59.80605830673932 H 0.0 **** 0.06
5843 H 25.06301875687319 24.668309839257972 60.62157472987761 H 0.0 **** 0.06
5844 H 26.59800448542913 24.603325615139795 59.722879107346515 H 0.0 **** 0.06
5845 H 26.42736490531439 23.716359817895693 61.25643600061004 H 0.0 **** 0.06
5846 C 10.354161249522164 67.34384967539887 51.23865709178473 C 0.0 **** -0.24
5847 H 9.594046025270941 66.93877637975044 50.569038961324765 H 0.0 **** 0.06
5848 H 9.869712718723349 67.86471452283354 52.064297615110696 H 0.0 **** 0.06
5849 H 10.986788522130539 68.04101531291559 50.689407910906795 H 0.0 **** 0.06
5850 H 10.964657964472224 66.52970526663074 51.62879871795032 H 0.0 **** 0.06
5851 C 0.051745595198497085 107.3600909780888 57.534575385647095 C 0.0 **** -0.24
5852 H 0.811026564637757 107.76528090688072 58.20337758993245 H 0.0 **** 0.06
5853 H -0.4383901025490218 108.17724751078401 57.003434010290405 H 0.0 **** 0.06
5854 H -0.6878037626561877 106.80969392768327 58.11579279487633 H 0.0 **** 0.06
5855 H 0.5221436725811941 106.68951740806 56.815369848871285 H 0.0 **** 0.06
5856 C 23.048871527643712 3.2744320045427457 41.210627873031115 C 0.0 **** -0.24
5857 H 22.16966833648712 3.91526002357881 41.286648450322986 H 0.0 **** 0.06
5858 H 23.718141478345956 3.6659387225555946 40.444785156174305 H 0.0 **** 0.06
5859 H 22.74024688329638 2.2642019329832124 40.94334926819482 H 0.0 **** 0.06
5860 H 23.566712763909607 3.2546155096366505 42.17042144760924 H 0.0 **** 0.06
5861 C 15.233400397059938 34.84175117441245 9.2701622244293 C 0.0 **** -0.24
5862 H 14.45835460494365 34.07832239629525 9.33475606198985 H 0.0 **** 0.06
5863 H 14.770840676876816 35.82857743117387 9.256151454153809 H 0.0 **** 0.06
5864 H 15.810036447684467 34.69776578526778 8.35589749984436 H 0.0 **** 0.06
5865 H 15.894756400887957 34.761589435333676 10.133306610644837 H 0.0 **** 0.06
5866 C 36.40379045374158 31.470128533296077 39.79296594010606 C 0.0 **** -0.24
5867 H 36.46954736929595 31.095540710804357 38.771589984807065 H 0.0 **** 0.06
5868 H 36.52303339470433 30.642422159403736 40.49233076557363 H 0.0 **** 0.06
5869 H 35.43197808116534 31.93967903491034 39.94607346436476 H 0.0 **** 0.06
5870 H 37.192594673116645 32.20420422827891 39.96136043801772 H 0.0 **** 0.06
5871 C 106.95413864145388 99.68325712371961 91.67727871399015 C 0.0 **** -0.24
5872 H 105.98083344809524 99.20034660937893 91.7626032963438 H 0.0 **** 0.06
5873 H 106.96530400341433 100.58764821879015 92.28552861402096 H 0.0 **** 0.06
5874 H 107.14038684380716 99.94339927970904 90.63488408091564 H 0.0 **** 0.06
5875 H 107.72947720450234 98.99989865485318 92.02527330420187 H 0.0 **** 0.06
5876 C 60.504748118808095 84.76326738372211 32.628130421685995 C 0.0 **** -0.24
5877 H 61.16722567404412 85.53163759457175 33.02708729621787 H 0.0 **** 0.06
5878 H 60.20693867477844 85.03132271747205 31.614168013980247 H 0.0 **** 0.06
5879 H 59.61917739658094 84.68308215326437 33.258682319572955 H 0.0 **** 0.06
5880 H 61.02693872069126 83.80656635320497 32.61222500397821 H 0.0 **** 0.06
5881 C 8.635274009014964 76.61027042791558 3.518394554537707 C 0.0 **** -0.24
5882 H 9.645950780655966 76.24062720880897 3.6921191243350506 H 0.0 **** 0.06
5883 H 8.506949898392321 76.83219536452172 2.45796670992398 H 0.0 **** 0.06
5884 H 8.475177202591084 77.51723129650202 4.1014810520075144 H 0.0 **** 0.06
5885 H 7.913376840848784 75.85166730227127 3.8213312701696225 H 0.0 **** 0.06
5886 C 15.84778764950346 31.58300499568506 61.25985825708915 C 0.0 **** -0.24
5887 H 15.935833201502788 31.531695199342437 60.17439329934609 H 0.0 **** 0.06
5888 H 16.161663327972178 30.633770487202526 61.694978710426625 H 0.0 **** 0.06
5889 H 14.81115856679611 31.78238445974631 61.53114377064685 H 0.0 **** 0.06
5890 H 16.482629798958243 32.38397242966536 61.63794614322285 H 0.0 **** 0.06
5891 C 89.16413477388471 34.87013828494064 52.03535041365717 C 0.0 **** -0.24
5892 H 88.31327509247672 34.2054047983505 52.18488322667156 H 0.0 **** 0.06
5893 H 88.84697951541824 35.903627584992236 52.177270489846194 H 0.0 **** 0.06
5894 H 89.55061688759386 34.74353659668422 51.02459604287614 H 0.0 **** 0.06
5895 H 89.94509622777781 34.62739575953265 52.756476043560355 H 0.0 **** 0.06
5896 C 54.61361300630492 22.681749809247066 39.9209893497067 C 0.0 **** -0.24
5897 H 54.957318816869844 23.442316826161573 39.2194160987211 H 0.0 **** 0.06
5898 H 54.920181239292845 21.696915071912358 39.56781892727602 H 0.0 **** 0.06
5899 H 53.52633310323421 22.720256367881845 39.992763689123564 H 0.0 **** 0.06
5900 H 55.04914432906804 22.86832713447194 40.9021810684838 H 0.0 **** 0.06
5901 C 102.46527013544058 26.321123075585035 26.425235295804786 C 0.0 **** -0.24
5902 H 101.73033728775452 25.925111593437208 25.72408088924633 H 0.0 **** 0.06
5903 H 103.44159008846184 26.366284883524315 25.94161491304643 H 0.0 **** 0.06
5904 H 102.52109441432903 25.670715886924143 27.29816885853903 H 0.0 **** 0.06
5905 H 102.16670126866875 27.322035545098714 26.737273330520406 H 0.0 **** 0.06
5906 C 30.033596781646665 33.97067580937297 78.0955147148822 C 0.0 **** -0.24
5907 H 30.51180647392593 34.91867896305765 78.34254991464002 H 0.0 **** 0.06
5908 H 29.141587605111766 33.84295543330725 78.70882458745638 H 0.0 **** 0.06
5909 H 30.727673788834153 33.15221772255808 78.28706977700944 H 0.0 **** 0.06
5910 H 29.75308207755998 33.969912931066304 77.04141990582309 H 0.0 **** 0.06
5911 C 74.86493500676004 108.94928712711933 1.2356578002844563 C 0.0 **** -0.24
5912 H 74.68953161011635 109.86952017059158 1.7917698355005953 H 0.0 **** 0.06
5913 H 74.4105842402114 109.029572846131 0.2475927722461604 H 0.0 **** 0.06
5914 H 74.42318037318013 108.11081013766648 1.7724873446471516 H 0.0 **** 0.06
5915 H 75.93824456220385 108.78840187544645 1.1301331945120854 H 0.0 **** 0.06
5916 C 94.55325566556067 21.468745361174243 91.07199621131474 C 0.0 **** -0.24
5917 H 94.90360502209458 20.621910760065475 91.66350566351335 H 0.0 **** 0.06
5918 H 94.42170808015825 22.334625946113235 91.71993281929122 H 0.0 **** 0.06
5919 H 93.60141130031519 21.215384711988392 90.60519373789231 H 0.0 **** 0.06
5920 H 95.28721629162004 21.69944639041313 90.29903711700916 H 0.0 **** 0.06
5921 C 108.48712855198357 62.29140454710806 94.31034217574394 C 0.0 **** -0.24
5922 H 108.02620505825321 61.413274194258534 93.85835382689882 H 0.0 **** 0.06
5923 H 107.96847446338181 62.53758205576507 95.23779649639637 H 0.0 **** 0.06
5924 H 108.4187001627887 63.1339364945221 93.62173824970351 H 0.0 **** 0.06
5925 H 109.5352965808755 62.08201606973887 94.52472764596048 H 0.0 **** 0.06
5926 C 44.25302997287055 107.01611161134818 107.53677214196352 C 0.0 **** -0.24
5927 H 44.191824793701954 106.01639353107379 107.10656108057523 H 0.0 **** 0.06
5928 H 44.81956540231658 107.66506383702139 106.86829662121833 H 0.0 **** 0.06
5929 H 44.7521876741613 106.9641339456306 108.50388936801612 H 0.0 **** 0.06
5930 H 43.24774146378063 107.41654091595211 107.66827976832516 H 0.0 **** 0.06
5931 C 93.37121103869369 88.90125350173264 50.08208708224021 C 0.0 **** -0.24
5932 H 93.94527400596546 88.68095904866972 49.1826128587094 H 0.0 **** 0.06
5933 H 94.04976035313577 89.01655460141015 50.92793955252637 H 0.0 **** 0.06
5934 H 92.67937336473035 88.08235738017247 50.280653609820874 H 0.0 **** 0.06
5935 H 92.81053401984215 89.82436286312259 49.93776032796362 H 0.0 **** 0.06
5936 C 9.146268473589515 58.93206487884049 99.00723475918653 C 0.0 **** -0.24
5937 H 9.588412188142797 58.2349533600922 98.29572347347789 H 0.0 **** 0.06
5938 H 9.737173921804754 58.938426680117985 99.92394802675574 H 0.0 **** 0.06
5939 H 8.126741007990091 58.620098060747964 99.23458543928484 H 0.0 **** 0.06
5940 H 9.133157259801465 59.93300420731377 98.57597565282606 H 0.0 **** 0.06
5941 C 34.344995473197514 109.62101557742949 94.81005559920033 C 0.0 **** -0.24
5942 H 33.710291628404406 110.45726511207313 95.1002047361257 H 0.0 **** 0.06
5943 H 34.11665043412191 108.75771028846778 95.43460532072282 H 0.0 **** 0.06
5944 H 35.39112214476529 109.89760031380293 94.93931390057176 H 0.0 **** 0.06
5945 H 34.1616919290924 109.37132070562313 93.76411810788835 H 0.0 **** 0.06
5946 C 53.0956633036677 57.19369390927767 43.14329485866605 C 0.0 **** -0.24
5947 H 52.696838415139354 56.588831466779766 42.32952895293258 H 0.0 **** 0.06
5948 H 52.63039972454695 56.8919984863503 44.08188238981384 H 0.0 **** 0.06
5949 H 52.88084510210508 58.246308813527406 42.95214309995697 H 0.0 **** 0.06
5950 H 54.17436121590563 57.04921269012917 43.20893697923151 H 0.0 **** 0.06
5951 C 62.92653727649814 103.8625172329606 4.097778204548353 C 0.0 **** -0.24
5952 H 63.710934647761945 103.19781647427892 4.460780363027329 H 0.0 **** 0.06
5953 H 62.50435055479038 104.41759170694547 4.935263455321044 H 0.0 **** 0.06
5954 H 62.1440508915602 103.27438357124048 3.619378095159057 H 0.0 **** 0.06
5955 H 63.34967617795269 104.56094916956626 3.37509832123696 H 0.0 **** 0.06
5956 C 72.60847182973822 86.88523547500515 93.52795059096182 C 0.0 **** -0.24
5957 H 73.3758823102431 86.28990812238271 93.03291586960538 H 0.0 **** 0.06
5958 H 73.05519105195503 87.44093589523436 94.3523775675561 H 0.0 **** 0.06
5959 H 71.82954863288174 86.22691053572453 93.91310875166576 H 0.0 **** 0.06
5960 H 72.17273500665215 87.58247840339101 92.81229733226047 H 0.0 **** 0.06
5961 C 103.80417474109042 41.825145550485956 68.06231994591917 C 0.0 **** -0.24
5962 H 104.75325638022198 41.66129554317234 67.55113297332736 H 0.0 **** 0.06
5963 H 103.20171358911897 42.531826965055245 67.4916266838764 H 0.0 **** 0.06
5964 H 103.99137167231112 42.227671878733474 69.05715141949514 H 0.0 **** 0.06
5965 H 103.27026475877896 40.878774484531704 68.1473775161162 H 0.0 **** 0.06
5966 C 109.30982397695823 57.81229550127631 3.235733239878087 C 0.0 **** -0.24
5967 H 109.5699412188886 58.402656531369814 2.3569359047501592 H 0.0 **** 0.06
5968 H 108.60021515985856 58.36814809594716 3.8489665611166544 H 0.0 **** 0.06
5969 H 110.20988091348126 57.6068525312441 3.8151972678262354 H 0.0 **** 0.06
5970 H 108.85790353139572 56.871294096376175 2.919805715418491 H 0.0 **** 0.06
5971 C 63.02006732500561 92.68977032643663 48.78382890468279 C 0.0 **** -0.24
5972 H 62.171204711035315 93.2971072877276 49.09503117127642 H 0.0 **** 0.06
5973 H 63.09008602889736 91.80846672937243 49.42263818153555 H 0.0 **** 0.06
5974 H 63.93552116160288 93.27445644322604 48.86883616042917 H 0.0 **** 0.06
5975 H 62.883858331586254 92.37777788541952 47.74834221172182 H 0.0 **** 0.06
5976 C 4.0804050121771525 31.04096911344294 87.80239325351408 C 0.0 **** -0.24
5977 H 4.782283875671624 30.45953015804953 87.20492890815291 H 0.0 **** 0.06
5978 H 3.3906331169364137 31.56726982198984 87.1417154061188 H 0.0 **** 0.06
5979 H 4.628076988528861 31.763101495591968 88.4068144849721 H 0.0 **** 0.06
5980 H 3.5193662883892216 30.372426038564143 88.45510724394342 H 0.0 **** 0.06
5981 C 0.6479615898772977 70.56562243397312 105.30519956608721 C 0.0 **** -0.24
5982 H 0.27283573336956124 69.56422989130884 105.09566580666112 H 0.0 **** 0.06
5983 H 1.6906629244866167 70.63555824564466 104.99296432309448 H 0.0 **** 0.06
5984 H 0.573801212992862 70.76559499197955 106.37343830558598 H 0.0 **** 0.06
5985 H 0.05468909549989576 71.29835149442921 104.75687775821818 H 0.0 **** 0.06
5986 C 49.13368071402351 29.22579650070361 8.416028743162627 C 0.0 **** -0.24
5987 H 48.498024215810574 29.889854845981176 7.83134067782774 H 0.0 **** 0.06
5988 H 49.057238261091015 29.488480907573262 9.472209802072996 H 0.0 **** 0.06
5989 H 50.16856081805028 29.330613340731645 8.08906620465271 H 0.0 **** 0.06
5990 H 48.81016701051445 28.19472249203281 8.274366741366123 H 0.0 **** 0.06
5991 C 109.01121544437368 69.19753555126019 6.275133711639967 C 0.0 **** -0.24
5992 H 110.08069484390313 69.20014650461937 6.061714121179648 H 0.0 **** 0.06
5993 H 108.85444175125076 69.01867470572867 7.338730277901618 H 0.0 **** 0.06
5994 H 108.52821958907441 68.40871146622956 5.6987662842047655 H 0.0 **** 0.06
5995 H 108.58429941518756 70.16216852549402 6.0013458848266055 H 0.0 **** 0.06
5996 C 58.631140924182176 27.42325686111667 62.60521384968018 C 0.0 **** -0.24
5997 H 57.55578331723687 27.27773161131846 62.495335013656984 H 0.0 **** 0.06
5998 H 59.098421692154155 27.42814654395238 61.62053896366493 H 0.0 **** 0.06
5999 H 59.0484672449123 26.612162982979257 63.201946057009025 H 0.0 **** 0.06
6000 H 58.81898957331218 28.37466480836747 63.10234526244108 H 0.0 **** 0.06
6001 C 93.81887539004259 5.817330564680702 68.72504920781944 C 0.0 **** -0.24
6002 H 93.88100751769491 4.754956358703623 68.48747700825027 H 0.0 **** 0.06
6003 H 93.132976312045 5.9633562741402955 69.56035027928476 H 0.0 **** 0.06
6004 H 93.45425667834922 6.363094530243444 67.85476433653787 H 0.0 **** 0.06
6005 H 94.80772249171315 6.186586444807858 68.99775305691745 H 0.0 **** 0.06
6006 C 72.06155210918593 34.061219628698396 93.52646758237358 C 0.0 **** -0.24
6007 H 72.42730167900379 34.9306470891859 94.07287220627109 H 0.0 **** 0.06
6008 H 72.51086166987704 34.042002288871004 92.53328003514866 H 0.0 **** 0.06
6009 H 70.97709390995215 34.12014869082553 93.43401953525927 H 0.0 **** 0.06
6010 H 72.33215376857822 33.15284301300346 94.06471244138396 H 0.0 **** 0.06
6011 C 60.710669819513214 19.42896695153763 9.047788417429288 C 0.0 **** -0.24
6012 H 60.20895968898009 20.393925256399456 9.122161075826057 H 0.0 **** 0.06
6013 H 60.69985455182109 19.09277336901752 8.010579754660256 H 0.0 **** 0.06
6014 H 60.191324320728654 18.7009453613517 9.670476661575393 H 0.0 **** 0.06
6015 H 61.74106597241962 19.527918903758177 9.387080429485195 H 0.0 **** 0.06
6016 C 45.22380657143552 107.3040705961243 9.984214958760845 C 0.0 **** -0.24
6017 H 46.16917437240326 106.76421969475415 10.041848345450717 H 0.0 **** 0.06
6018 H 45.414630325102905 108.34454527904296 9.723305890966117 H 0.0 **** 0.06
6019 H 44.72079317356744 107.25783067708933 10.950173167687012 H 0.0 **** 0.06
6020 H 44.591405156875226 106.8474918268549 9.222293583457997 H 0.0 **** 0.06
6021 C 82.5602888905492 69.57099391385934 74.8122197717548 C 0.0 **** -0.24
6022 H 83.50569387999627 69.38714550686966 74.30067398656445 H 0.0 **** 0.06
6023 H 81.93670786071141 68.67810802595037 74.75415582873569 H 0.0 **** 0.06
6024 H 82.04619981399605 70.40498110790398 74.33568374401983 H 0.0 **** 0.06
6025 H 82.75360826071045 69.8118065054788 75.85729477027917 H 0.0 **** 0.06
6026 C 102.0075295740606 15.934549932557047 67.39404061600754 C 0.0 **** -0.24
6027 H 102.46873137642486 15.475482128925819 68.26840524568297 H 0.0 **** 0.06
6028 H 102.7837924057612 16.255337956966912 66.69948254586018 H 0.0 **** 0.06
6029 H 101.41788151010348 16.796627360574973 67.70537085316005 H 0.0 **** 0.06
6030 H 101.35849557404843 15.208322621609 66.90417466635779 H 0.0 **** 0.06
6031 C 79.2603213685241 58.7410564975852 30.85746437112175 C 0.0 **** -0.24
6032 H 80.16094440119358 58.126761459024 30.84704102939719 H 0.0 **** 0.06
6033 H 78.78261042026449 58.668459804597695 31.834590177178086 H 0.0 **** 0.06
6034 H 78.57256130392767 58.38766357494321 30.088181277521585 H 0.0 **** 0.06
6035 H 79.52553363564039 59.778800318279394 30.658491969130807 H 0.0 **** 0.06
6036 C 3.2560777513171217 73.7108118115845 108.5154517799047 C 0.0 **** -0.24
6037 H 4.294412195857291 73.68995115423866 108.84694732352833 H 0.0 **** 0.06
6038 H 2.7230835593906306 72.85847381488031 108.93504792004052 H 0.0 **** 0.06
6039 H 3.2213575216927524 73.66154653022846 107.42645941440979 H 0.0 **** 0.06
6040 H 2.7858140744809106 74.63509697501854 108.85175357353678 H 0.0 **** 0.06
6041 C 42.78983317203728 66.73773638395681 34.834177460011404 C 0.0 **** -0.24
6042 H 42.592553668453206 66.67619088711137 33.76367811810414 H 0.0 **** 0.06
6043 H 42.847658329088404 65.7315404218873 35.25128162215819 H 0.0 **** 0.06
6044 H 41.98521264211735 67.28821830894361 35.32104940007645 H 0.0 **** 0.06
6045 H 43.73514285370027 67.2549693524648 34.99912756635027 H 0.0 **** 0.06
6046 C 59.8878773090228 74.11356381590056 99.80528703340744 C 0.0 **** -0.24
6047 H 60.358700259222374 74.69793205692966 99.01443471039656 H 0.0 **** 0.06
6048 H 60.476470806054095 73.21517401301523 99.99120723448397 H 0.0 **** 0.06
6049 H 58.880776334769585 73.83194912135338 99.4981964230328 H 0.0 **** 0.06
6050 H 59.83712270562563 74.7093864624598 100.71658237757882 H 0.0 **** 0.06
6051 C 0.6820544473524137 10.273677689247288 82.5311609916115 C 0.0 **** -0.24
6052 H -0.20202749769055117 10.35002390659925 81.89722937688282 H 0.0 **** 0.06
6053 H 1.549824592876064 10.035192568605417 81.915788983065 H 0.0 **** 0.06
6054 H 0.5324349228475285 9.486809697132827 83.26946008506167 H 0.0 **** 0.06
6055 H 0.8461477298321824 11.223043023011574 83.04004572861788 H 0.0 **** 0.06
6056 C 3.4498079872773246 24.74500764369048 5.954234847646575 C 0.0 **** -0.24
6057 H 2.9719338242462925 23.793954566572243 6.18591806859186 H 0.0 **** 0.06
6058 H 4.2151693156675805 24.592093581343864 5.193227489401039 H 0.0 **** 0.06
6059 H 3.9087065160526606 25.150008913819768 6.856129503975325 H 0.0 **** 0.06
6060 H 2.7019674230494246 25.445795815425186 5.582414571415967 H 0.0 **** 0.06
6061 C 3.0177495557542047 78.4340093822857 42.7295654016649 C 0.0 **** -0.24
6062 H 3.2248752746910547 78.77740112340524 41.71565912009504 H 0.0 **** 0.06
6063 H 2.6871705963998123 79.27592528465914 43.33732192947605 H 0.0 **** 0.06
6064 H 3.924203387402388 78.00754719940056 43.15962276945157 H 0.0 **** 0.06
6065 H 2.2364609123893135 77.67415890360152 42.7034084279303 H 0.0 **** 0.06
6066 C 18.216492385746307 70.02917173078202 13.623334475509239 C 0.0 **** -0.24
6067 H 18.644909430604223 69.65377858482918 14.553400469629423 H 0.0 **** 0.06
6068 H 17.902948766396563 69.18850779256559 13.003710034773405 H 0.0 **** 0.06
6069 H 18.963780313755652 70.61583750003183 13.08938609592036 H 0.0 **** 0.06
6070 H 17.354599199899035 70.65621879859538 13.848946791459696 H 0.0 **** 0.06
6071 C 95.53965200543547 11.76181731380808 34.75863734418556 C 0.0 **** -0.24
6072 H 94.61123258294552 12.332222233607268 34.79545439661305 H 0.0 **** 0.06
6073 H 95.349704372985 10.738481499196268 35.081072654115985 H 0.0 **** 0.06
6074 H 96.27372317262211 12.222203649976166 35.419818711195205 H 0.0 **** 0.06
6075 H 95.9223812909458 11.757414540428954 33.73772657163977 H 0.0 **** 0.06
6076 C 14.184499195654311 12.094830461196665 28.740615770258557 C 0.0 **** -0.24
6077 H 15.002347948544895 11.750664116085574 28.107925653451616 H 0.0 **** 0.06
6078 H 13.322450858107274 12.337824653845956 28.11884219188329 H 0.0 **** 0.06
6079 H 14.49894685953258 12.98208783988406 29.289703057558256 H 0.0 **** 0.06
6080 H 13.91439561773943 11.307937887513873 29.44542002518773 H 0.0 **** 0.06
6081 C 14.592822610780196 70.09388860584555 68.04291382109955 C 0.0 **** -0.24
6082 H 14.063347677690157 69.57084386795003 68.8396160164267 H 0.0 **** 0.06
6083 H 14.588234780149552 69.48144596346641 67.14109297465785 H 0.0 **** 0.06
6084 H 15.621517259488915 70.27923810303638 68.35263751478607 H 0.0 **** 0.06
6085 H 14.097229371066707 71.04307716383016 67.84009058286006 H 0.0 **** 0.06
6086 C 106.43609714755803 45.29616351799348 84.75709575081726 C 0.0 **** -0.24
6087 H 107.11171633719809 44.610707764427104 85.26886717409968 H 0.0 **** 0.06
6088 H 105.5681989359403 45.48920066683087 85.38647333514788 H 0.0 **** 0.06
6089 H 106.1126713643263 44.851953763677216 83.81627522113132 H 0.0 **** 0.06
6090 H 106.95524168144624 46.234254735181196 84.55659696046669 H 0.0 **** 0.06
6091 C 51.98603898491126 34.898640220681145 40.012813952613826 C 0.0 **** -0.24
6092 H 52.50917753041233 35.62791530340263 40.63307187071213 H 0.0 **** 0.06
6093 H 52.68698188288056 34.1275876191518 39.690378087228495 H 0.0 **** 0.06
6094 H 51.569060389277126 35.39896770380713 39.13959115453237 H 0.0 **** 0.06
6095 H 51.18210037987143 34.44217049010365 40.58984596662879 H 0.0 **** 0.06
6096 C 89.43195164665293 88.12613122484376 21.528982751241557 C 0.0 **** -0.24
6097 H 89.29681533993868 87.1712821466314 21.020576124343492 H 0.0 **** 0.06
6098 H 90.43652206941742 88.17320827139844 21.949270600971417 H 0.0 **** 0.06
6099 H 88.69774071129147 88.2171789332404 22.32945478756534 H 0.0 **** 0.06
6100 H 89.29596866837848 88.93919516606798 20.816471363583858 H 0.0 **** 0.06
6101 C 56.08197963101344 44.542643204747094 107.41779755926018 C 0.0 **** -0.24
6102 H 57.12066550828854 44.59641307413278 107.74297025617622 H 0.0 **** 0.06
6103 H 55.528381875900095 45.38677296667095 107.82981499536962 H 0.0 **** 0.06
6104 H 55.63874177147005 43.61093159994533 107.76986370108011 H 0.0 **** 0.06
6105 H 56.039790193805004 44.576720878981234 106.329888304387 H 0.0 **** 0.06
6106 C 39.99048885229148 88.40400064416353 34.37316031076668 C 0.0 **** -0.24
6107 H 40.38544489216026 89.26266634367971 33.830887529379446 H 0.0 **** 0.06
6108 H 39.95324911456193 87.54048453902288 33.708926158582585 H 0.0 **** 0.06
6109 H 38.986010148791216 88.6316500983777 34.73138673964232 H 0.0 **** 0.06
6110 H 40.637133228340964 88.18174064648079 35.22227480808327 H 0.0 **** 0.06
6111 C 13.130570862289517 93.4508898259952 73.02320799954708 C 0.0 **** -0.24
6112 H 12.997064218522496 94.16257621144993 72.20827527549778 H 0.0 **** 0.06
6113 H 13.51930419831838 93.97093678888632 73.89886856457082 H 0.0 **** 0.06
6114 H 13.83547193707534 92.67661870442329 72.7171660669054 H 0.0 **** 0.06
6115 H 12.172649967212863 92.99331797825694 73.26746473761841 H 0.0 **** 0.06
6116 C 15.367063062743256 46.76273969278851 87.45761000983995 C 0.0 **** -0.24
6117 H 14.453371481106558 47.304357499320275 87.70587960869253 H 0.0 **** 0.06
6118 H 16.07159087804075 46.84090694471818 88.28503206157865 H 0.0 **** 0.06
6119 H 15.81062304716491 47.19313291801337 86.55989565440558 H 0.0 **** 0.06
6120 H 15.12974627202533 45.71473149059393 87.27875996302868 H 0.0 **** 0.06
6121 C 59.77766101291212 70.63238261517034 74.22357447791268 C 0.0 **** -0.24
6122 H 59.18671127155312 71.03816190718797 73.40305184885494 H 0.0 **** 0.06
6123 H 59.190689300702246 69.88396135556067 74.75732513390153 H 0.0 **** 0.06
6124 H 60.04875836110307 71.43648538666659 74.90802231805503 H 0.0 **** 0.06
6125 H 60.68219218313098 70.17124311945906 73.82805260825455 H 0.0 **** 0.06
6126 C 98.7771176855053 50.38248098950345 24.261085146197036 C 0.0 **** -0.24
6127 H 97.9392602012613 49.721382770327125 24.041322076419178 H 0.0 **** 0.06
6128 H 99.1467866768059 50.82135192916226 23.333813315640917 H 0.0 **** 0.06
6129 H 99.57582258092334 49.81156210328339 24.73567447265069 H 0.0 **** 0.06
6130 H 98.44824115446366 51.17536233046084 24.933039967432585 H 0.0 **** 0.06
6131 C 60.85639106361633 4.406478179103317 25.18550671384558 C 0.0 **** -0.24
6132 H 59.90931047200486 3.9475697949528126 25.468484253787533 H 0.0 **** 0.06
6133 H 61.427078408007446 4.644414101183088 26.083747976768933 H 0.0 **** 0.06
6134 H 60.66336226768826 5.321075785896937 24.6248865554343 H 0.0 **** 0.06
6135 H 61.42574832307798 3.713634942257272 24.5655281280122 H 0.0 **** 0.06
6136 C 6.552272211318581 46.719024795160166 73.9579054359271 C 0.0 **** -0.24
6137 H 7.428474538581071 47.03202867148241 74.5258780831283 H 0.0 **** 0.06
6138 H 6.498879610511651 47.28794537977128 73.02925991603263 H 0.0 **** 0.06
6139 H 5.6533633405946375 46.900017943148114 74.5472416611496 H 0.0 **** 0.06
6140 H 6.629238303178155 45.655640564109135 73.72906682584795 H 0.0 **** 0.06
6141 C 92.60196382715122 106.98883230622842 109.44214107918576 C 0.0 **** -0.24
6142 H 92.44185118995964 107.6653688386245 110.28207867404792 H 0.0 **** 0.06
6143 H 91.69367125972697 106.93290468331026 108.84270172111746 H 0.0 **** 0.06
6144 H 92.85190567988697 105.99653610696018 109.81797242413451 H 0.0 **** 0.06
6145 H 93.42128032284295 107.361404664041 108.82767939678855 H 0.0 **** 0.06
6146 C 64.1028761856301 72.19108892767036 6.912456949033583 C 0.0 **** -0.24
6147 H 63.05827135075879 72.20431834216521 6.601932280300844 H 0.0 **** 0.06
6148 H 64.7207342980119 72.63077567963819 6.129008281786753 H 0.0 **** 0.06
6149 H 64.41655817432377 71.16178315925504 7.087537299402243 H 0.0 **** 0.06
6150 H 64.21658187053004 72.76628527634136 7.830943206995983 H 0.0 **** 0.06
6151 C 42.229770570369375 108.65664366562412 6.15932794525088 C 0.0 **** -0.24
6152 H 41.2133948016652 108.38682418002205 6.4444534554684765 H 0.0 **** 0.06
6153 H 42.51637305030418 109.57672767916524 6.668734751479079 H 0.0 **** 0.06
6154 H 42.2770580821572 108.80722329603473 5.081155652447563 H 0.0 **** 0.06
6155 H 42.911530482111246 107.85584616564422 6.445082440556604 H 0.0 **** 0.06
6156 C 25.197043527936756 66.52771320415778 59.42122365434946 C 0.0 **** -0.24
6157 H 24.542098533009153 65.66402883625716 59.534268817018216 H 0.0 **** 0.06
6158 H 24.606150562569525 67.44232644396214 59.48158132538933 H 0.0 **** 0.06
6159 H 25.697221303292224 66.48004062340306 58.45388690543854 H 0.0 **** 0.06
6160 H 25.94269901899162 66.52369724309068 60.21635045625018 H 0.0 **** 0.06
6161 C 22.12484077856999 38.34989497774632 36.452326576811345 C 0.0 **** -0.24
6162 H 22.53021463033059 37.803526831818345 37.3042460436871 H 0.0 **** 0.06
6163 H 21.05493682488887 38.158938240896305 36.374835471680456 H 0.0 **** 0.06
6164 H 22.621229907544688 38.01916758287257 35.539558738234234 H 0.0 **** 0.06
6165 H 22.295512121758094 39.417084669125956 36.59158994093684 H 0.0 **** 0.06
6166 C 37.21527731931814 23.96247093760827 23.40944140535271 C 0.0 **** -0.24
6167 H 37.07841288675701 24.253150072048232 22.36803773066046 H 0.0 **** 0.06
6168 H 38.253201048505396 24.130600153889077 23.700078391131058 H 0.0 **** 0.06
6169 H 36.97063717737707 22.907576134541294 23.527398781598237 H 0.0 **** 0.06
6170 H 36.55999051318654 24.56044579862419 24.042640522051556 H 0.0 **** 0.06
6171 C 19.07632682095327 8.876726559041401 28.669602337870913 C 0.0 **** -0.24
6172 H 18.72722650729648 9.383901365958963 29.568643779303557 H 0.0 **** 0.06
6173 H 19.282677150490038 7.831758346457136 28.898785208215287 H 0.0 **** 0.06
6174 H 19.987302278521234 9.358714768032868 28.312243926483745 H 0.0 **** 0.06
6175 H 18.308424099463238 8.93588169084228 27.897915242993605 H 0.0 **** 0.06
6176 C 75.23006297616122 74.93658762978737 8.953375452979401 C 0.0 **** -0.24
6177 H 75.74812188987634 75.20291485090371 9.875106800091672 H 0.0 **** 0.06
6178 H 75.83893526336169 75.22640695462476 8.096985844669945 H 0.0 **** 0.06
6179 H 74.27324964691813 75.4566170715724 8.91252853581922 H 0.0 **** 0.06
6180 H 75.05938767757087 73.85962847418855 8.931722526699573 H 0.0 **** 0.06
6181 C 81.40613312202163 2.618356569826574 16.68148148397235 C 0.0 **** -0.24
6182 H 80.92205522206166 2.230060087787706 17.57762393683456 H 0.0 **** 0.06
6183 H 82.26484249812162 3.227235556658073 16.967966306425556 H 0.0 **** 0.06
6184 H 80.69828018014829 3.228705772677216 16.12204350723733 H 0.0 **** 0.06
6185 H 81.74044478464373 1.7877029126641446 16.060224646621595 H 0.0 **** 0.06
6186 C 72.64245955021943 59.09011436877287 11.6848744109233 C 0.0 **** -0.24
6187 H 72.0546047458354 58.44324843783937 12.336533898502722 H 0.0 **** 0.06
6188 H 73.70094760757587 58.85334971062787 11.796697641281327 H 0.0 **** 0.06
6189 H 72.47144398994544 60.13166875654031 11.957282208134558 H 0.0 **** 0.06
6190 H 72.34169260947871 58.93090465549642 10.64914452345063 H 0.0 **** 0.06
6191 C 6.741328854891648 89.23972154808753 24.62509191517458 C 0.0 **** -0.24
6192 H 6.065710839515546 88.46478625820997 24.98811187343989 H 0.0 **** 0.06
6193 H 7.764550788152434 88.98697581475898 24.90327232446228 H 0.0 **** 0.06
6194 H 6.468885403238872 90.19646862497761 25.070515819352153 H 0.0 **** 0.06
6195 H 6.664896865860925 89.30843584589438 23.5400350732462 H 0.0 **** 0.06
6196 C 67.05740673516686 27.90013450811734 23.893210580708374 C 0.0 **** -0.24
6197 H 66.2204047990264 28.589516684556912 23.99659219429445 H 0.0 **** 0.06
6198 H 66.85812887062315 27.207112280270337 23.07509234505078 H 0.0 **** 0.06
6199 H 67.18426833699527 27.340340542905174 24.8201041766621 H 0.0 **** 0.06
6200 H 67.9666978579869 28.461933622344603 23.68161136527472 H 0.0 **** 0.06
6201 C 94.39407325814508 75.96242117874566 89.4363181057314 C 0.0 **** -0.24
6202 H 93.55451126752288 75.27249447820058 89.36097490639003 H 0.0 **** 0.06
6203 H 94.40007754149985 76.42065579212851 90.42537010525828 H 0.0 **** 0.06
6204 H 94.29459936041856 76.7381653023535 88.67689274634827 H 0.0 **** 0.06
6205 H 95.32604738146365 75.4191050854565 89.28145138174801 H 0.0 **** 0.06
6206 C 92.18476145967018 65.22700469390034 62.87466711102229 C 0.0 **** -0.24
6207 H 91.19750032227512 65.66286082715229 63.02746022602254 H 0.0 **** 0.06
6208 H 92.27117030671423 64.31014895265753 63.458650822299276 H 0.0 **** 0.06
6209 H 92.94813293540054 65.93652914597033 63.19507301121716 H 0.0 **** 0.06
6210 H 92.3213024843646 64.99939376056705 61.81695366698342 H 0.0 **** 0.06
6211 C 63.52453220969359 2.757671627067708 72.72380438253998 C 0.0 **** -0.24
6212 H 62.800719988386064 1.996467756802204 72.43092821498777 H 0.0 **** 0.06
6213 H 63.276461826524354 3.1311444544176226 73.71743258575631 H 0.0 **** 0.06
6214 H 63.49464209644533 3.580237810608665 72.00835810150403 H 0.0 **** 0.06
6215 H 64.52338172653731 2.323326099594709 72.73701009824111 H 0.0 **** 0.06
6216 C 65.87850034477964 66.6414481244389 104.78232363704782 C 0.0 **** -0.24
6217 H 66.9507902304752 66.77320298397773 104.64112919053652 H 0.0 **** 0.06
6218 H 65.70010899112532 65.77345230793148 105.41762961689135 H 0.0 **** 0.06
6219 H 65.40019085655223 66.48887627531523 103.81534603742185 H 0.0 **** 0.06
6220 H 65.46346442899323 67.53057021497388 105.25708669851909 H 0.0 **** 0.06
6221 C 60.61418963718134 6.584729846467511 50.2086732327069 C 0.0 **** -0.24
6222 H 59.96091760848918 6.242051794065162 49.406905673610765 H 0.0 **** 0.06
6223 H 60.88905726534534 5.739753108621201 50.83937754087199 H 0.0 **** 0.06
6224 H 60.09181910050418 7.330806267831306 50.807991084921525 H 0.0 **** 0.06
6225 H 61.5135750721214 7.027985890027608 49.78092354614117 H 0.0 **** 0.06
6226 C 26.528701437434677 82.19855900517615 101.18449668116403 C 0.0 **** -0.24
6227 H 27.13173582911034 81.62492604508192 101.88786470691879 H 0.0 **** 0.06
6228 H 25.47239149264493 82.0593243464448 101.41371241921746 H 0.0 **** 0.06
6229 H 26.728893308941466 81.85495211140726 100.16975416815681 H 0.0 **** 0.06
6230 H 26.78279441732522 83.25592308350214 101.26709142219447 H 0.0 **** 0.06
6231 C 33.274832479990096 8.3746412983213 6.257297514040081 C 0.0 **** -0.24
6232 H 33.85143820157299 7.575566855747274 6.72295374656116 H 0.0 **** 0.06
6233 H 33.954352418422246 9.099231666570262 5.809638861735202 H 0.0 **** 0.06
6234 H 32.662436418276314 8.868486207462636 7.0125505795157075 H 0.0 **** 0.06
6235 H 32.630380083628665 7.9542812525109685 5.484739139570866 H 0.0 **** 0.06
6236 C 55.096882485934046 100.728969050513 63.10487809825429 C 0.0 **** -0.24
6237 H 55.72597125224575 100.2208014861141 63.83532035175648 H 0.0 **** 0.06
6238 H 55.08971035173167 100.1603012473037 62.174251200566744 H 0.0 **** 0.06
6239 H 55.4914879984638 101.72813387291 62.91814553374644 H 0.0 **** 0.06
6240 H 54.08036034129507 100.8066395957241 63.491795306947324 H 0.0 **** 0.06
6241 C 73.65357916481906 68.35142829139608 108.26958574017185 C 0.0 **** -0.24
6242 H 74.13194184280741 68.47577259872037 107.29867202178139 H 0.0 **** 0.06
6243 H 72.61434970415837 68.673352228937 108.20619845842326 H 0.0 **** 0.06
6244 H 74.17740214006011 68.95461316832473 109.01208586061405 H 0.0 **** 0.06
6245 H 73.69280306150844 67.30157941813212 108.56168801550861 H 0.0 **** 0.06
6246 C 79.34423123429141 95.55950520591918 53.347995956766454 C 0.0 **** -0.24
6247 H 80.41648468490337 95.48203626122917 53.52944564913173 H 0.0 **** 0.06
6248 H 79.11855677749003 96.5323986942354 52.91160833951835 H 0.0 **** 0.06
6249 H 78.80703436710672 95.44961778734907 54.29021682311105 H 0.0 **** 0.06
6250 H 79.03542886696908 94.77184917015363 52.660295469751816 H 0.0 **** 0.06
6251 C 7.368825200514619 46.48951969531623 81.61548663986397 C 0.0 **** -0.24
6252 H 6.821726935606325 46.393515780199834 80.67716012733617 H 0.0 **** 0.06
6253 H 8.393355760349259 46.145941607494706 81.47477394160377 H 0.0 **** 0.06
6254 H 6.883295717678006 45.884371665608285 82.38119928473425 H 0.0 **** 0.06
6255 H 7.374155185114089 47.53372726461069 81.92737441693446 H 0.0 **** 0.06
6256 C 79.94841428046068 27.454307620345162 40.574437399174315 C 0.0 **** -0.24
6257 H 80.56661344825199 27.32156230235313 41.461584663935696 H 0.0 **** 0.06
6258 H 78.91219310401513 27.61268272315968 40.87298531317623 H 0.0 **** 0.06
6259 H 80.01473676316311 26.565283386348995 39.94832156512018 H 0.0 **** 0.06
6260 H 80.30062513956318 28.321005655121468 40.01350694207912 H 0.0 **** 0.06
6261 C 39.09744530450192 27.12676233264564 40.95933041288656 C 0.0 **** -0.24
6262 H 38.55233060644369 26.245002459746303 41.29557338512893 H 0.0 **** 0.06
6263 H 40.12110113118189 26.847875412772368 40.709005208139686 H 0.0 **** 0.06
6264 H 39.10772195274325 27.872053712882177 41.75585982701614 H 0.0 **** 0.06
6265 H 38.60757008434143 27.54261063427353 40.07903710481742 H 0.0 **** 0.06
6266 C 31.77694093364932 37.52370758222563 76.51386358805327 C 0.0 **** -0.24
6267 H 31.729622750308373 36.5261442677008 76.0764298022542 H 0.0 **** 0.06
6268 H 31.85191521415959 38.2655329115328 75.71814821792285 H 0.0 **** 0.06
6269 H 32.65074842462442 37.59414088191902 77.16173972540122 H 0.0 **** 0.06
6270 H 30.875068919379522 37.70696487760722 77.09833558888467 H 0.0 **** 0.06
6271 C 77.41848152691665 11.660222126307218 67.88491019403648 C 0.0 **** -0.24
6272 H 77.0128430342308 10.84993113526599 68.49035611683252 H 0.0 **** 0.06
6273 H 76.88589118585224 11.705854363034462 66.93450757652721 H 0.0 **** 0.06
6274 H 78.47722019770356 11.481669211688512 67.700681857657 H 0.0 **** 0.06
6275 H 77.29654387042672 12.605002740539675 68.41480232482894 H 0.0 **** 0.06
6276 C 19.080922392572802 79.49736601440998 51.211245517550424 C 0.0 **** -0.24
6277 H 19.726507175479696 79.01593902209493 50.476654334567684 H 0.0 **** 0.06
6278 H 18.087868697941644 79.05061688882216 51.16925251769635 H 0.0 **** 0.06
6279 H 19.00948604204325 80.56242885397933 50.98860925630612 H 0.0 **** 0.06
6280 H 19.49942680699519 79.36146662513488 52.20748854811802 H 0.0 **** 0.06
6281 C 23.40529992666751 107.21890240218761 77.61413438551503 C 0.0 **** -0.24
6282 H 23.838417687025412 107.36189598250061 78.60411100365073 H 0.0 **** 0.06
6283 H 22.405531056153393 106.79410138934318 77.71300425418167 H 0.0 **** 0.06
6284 H 24.03328889666176 106.54008889860737 77.03744215746815 H 0.0 **** 0.06
6285 H 23.342331744905323 108.18008722634042 77.10340291572192 H 0.0 **** 0.06
6286 C 34.09508258825116 46.450983465560284 6.287732948040114 C 0.0 **** -0.24
6287 H 33.612556888926235 47.04688609254828 7.0629476995336 H 0.0 **** 0.06
6288 H 35.170946578170174 46.429291278958544 6.462590057396177 H 0.0 **** 0.06
6289 H 33.89302202782281 46.89317355113866 5.312273922511096 H 0.0 **** 0.06
6290 H 33.701936548756066 45.43433273394112 6.314684438343923 H 0.0 **** 0.06
6291 C 46.74157065073849 4.888240839226 65.92658826796495 C 0.0 **** -0.24
6292 H 47.41955026486746 5.216714426235484 66.71426117134405 H 0.0 **** 0.06
6293 H 47.29815075221313 4.767035543728525 64.99634323798489 H 0.0 **** 0.06
6294 H 45.95950550288066 5.634109790285578 65.78766946725798 H 0.0 **** 0.06
6295 H 46.290707165688445 3.936778007366385 66.20734692805075 H 0.0 **** 0.06
6296 C 9.702990009503935 36.214403551187445 37.44328105458101 C 0.0 **** -0.24
6297 H 10.5216015093215 35.874313317675615 38.07730525950973 H 0.0 **** 0.06
6298 H 8.791226977174915 36.286144247908595 38.03585534012532 H 0.0 **** 0.06
6299 H 9.553764641407653 35.50313585496565 36.63092219491352 H 0.0 **** 0.06
6300 H 9.946452757738655 37.1932119248151 37.02863303606739 H 0.0 **** 0.06
6301 C 73.18452702759728 64.84170523460739 23.06595431477382 C 0.0 **** -0.24
6302 H 73.95321410695001 64.43599804119015 22.409547715446763 H 0.0 **** 0.06
6303 H 73.55635155029081 64.86521555956438 24.090316386178756 H 0.0 **** 0.06
6304 H 72.29427904535191 64.21345722928288 23.015775443592958 H 0.0 **** 0.06
6305 H 72.93261006757635 65.85392264929874 22.747824355517906 H 0.0 **** 0.06
6306 C 35.22759551738531 10.600135524894 27.002957371966062 C 0.0 **** -0.24
6307 H 34.66539484838387 10.638714412916812 27.936795160470638 H 0.0 **** 0.06
6308 H 34.56840474424965 10.279556738359247 26.19636601372939 H 0.0 **** 0.06
6309 H 36.05040828652733 9.893524104728442 27.103894145250678 H 0.0 **** 0.06
6310 H 35.62448455208505 11.590232993663122 26.77675833732107 H 0.0 **** 0.06
6311 C 90.52763750011016 84.86701298807668 2.6804419095718828 C 0.0 **** -0.24
6312 H 90.32898814654303 85.93581257583497 2.6005748803738555 H 0.0 **** 0.06
6313 H 89.64474221137974 84.31046685877604 2.366956424083824 H 0.0 **** 0.06
6314 H 90.76655478203506 84.6188818264796 3.714464786521077 H 0.0 **** 0.06
6315 H 91.36971055877432 84.60599944467566 2.0399415385132613 H 0.0 **** 0.06
6316 C 88.06585332624735 35.005902783833164 107.4558512789132 C 0.0 **** -0.24
6317 H 88.17525571644478 35.55539065452473 106.52078226108107 H 0.0 **** 0.06
6318 H 88.58490426810846 34.05000017896742 107.3790122203242 H 0.0 **** 0.06
6319 H 87.00721755214641 34.82963721020536 107.65155183218337 H 0.0 **** 0.06
6320 H 88.49384711291594 35.588322596655814 108.27168173741137 H 0.0 **** 0.06
6321 C 96.52014411654147 22.98121336701125 93.93576729374654 C 0.0 **** -0.24
6322 H 95.63494224832522 23.04882340689454 94.56816226295045 H 0.0 **** 0.06
6323 H 97.38811128701047 22.742042330711072 94.55079420832286 H 0.0 **** 0.06
6324 H 96.68137469742294 23.93610638028136 93.43458475136408 H 0.0 **** 0.06
6325 H 96.37445777999756 22.198978848520937 93.19049651434763 H 0.0 **** 0.06
6326 C 73.48984103324048 13.049000711007977 26.364727646953355 C 0.0 **** -0.24
6327 H 74.0957312509544 13.528295051289518 25.595417650528788 H 0.0 **** 0.06
6328 H 72.59056048949908 13.640834605496991 26.539953462171 H 0.0 **** 0.06
6329 H 74.06496478551625 12.97959669032042 27.288350753326796 H 0.0 **** 0.06
6330 H 73.20921906674724 12.049111594951597 26.03581905517349 H 0.0 **** 0.06
6331 C 20.540078266887235 77.82901952171791 103.80373410110238 C 0.0 **** -0.24
6332 H 20.72275505925839 77.48255630086696 104.82046919081597 H 0.0 **** 0.06
6333 H 21.44097042797449 78.30236516000839 103.4140290127196 H 0.0 **** 0.06
6334 H 19.722960743975847 78.55038214459249 103.80744641040926 H 0.0 **** 0.06
6335 H 20.272971767386167 76.98061092145372 103.1737294776301 H 0.0 **** 0.06
6336 C 70.42716024263933 72.57157115884416 99.20458084999696 C 0.0 **** -0.24
6337 H 71.11029280297527 71.8336105665764 99.62634498318927 H 0.0 **** 0.06
6338 H 70.84429189829885 72.96173833995081 98.27624976020856 H 0.0 **** 0.06
6339 H 70.29190712845335 73.3883747186891 99.91427617470458 H 0.0 **** 0.06
6340 H 69.46536040791722 72.10168662403157 99.00316242523026 H 0.0 **** 0.06
6341 C 65.09769903224107 77.08673708071369 75.31619583907394 C 0.0 **** -0.24
6342 H 65.88134619577619 76.89026262986192 74.58442553286197 H 0.0 **** 0.06
6343 H 65.18204988421479 78.11475853243994 75.67055831157873 H 0.0 **** 0.06
6344 H 65.206461770276 76.4024480091596 76.15717084341155 H 0.0 **** 0.06
6345 H 64.12241707200549 76.94118711925428 74.85168193013997 H 0.0 **** 0.06
6346 C 8.100189136853999 89.22631827801774 18.726328205449647 C 0.0 **** -0.24
6347 H 8.593800856684936 88.29505343622066 18.446903490139164 H 0.0 **** 0.06
6348 H 7.770906610849806 89.16533509671575 19.76373600655677 H 0.0 **** 0.06
6349 H 7.238429347164697 89.38869084438039 18.079309616550404 H 0.0 **** 0.06
6350 H 8.799973452409859 90.05481659630038 18.614612782686663 H 0.0 **** 0.06
6351 C 15.795620786953194 75.42000707605935 27.437908018932774 C 0.0 **** -0.24
6352 H 14.89888731248746 75.40135072981334 28.05731166898596 H 0.0 **** 0.06
6353 H 15.547334480629615 75.81119722640013 26.450769685158264 H 0.0 **** 0.06
6354 H 16.190684047965647 74.40862969062992 27.340647116995456 H 0.0 **** 0.06
6355 H 16.54466488792069 76.0596505204965 27.90449354456473 H 0.0 **** 0.06
6356 C 54.65330573483095 75.03471435356698 22.460720748987058 C 0.0 **** -0.24
6357 H 53.58945043733286 75.0623457780062 22.697265234519364 H 0.0 **** 0.06
6358 H 54.810779747985634 74.43305477142292 21.565636094272634 H 0.0 **** 0.06
6359 H 55.1996080700344 74.59536083343599 23.29604772869584 H 0.0 **** 0.06
6360 H 55.011939169063965 76.04950921389985 22.285317303619138 H 0.0 **** 0.06
6361 C 7.2316943576179575 60.156487688351206 30.169173456829128 C 0.0 **** -0.24
6362 H 6.707282417007642 60.56221441757043 29.3036084177578 H 0.0 **** 0.06
6363 H 6.517145490463372 59.97307833264108 30.971692488138928 H 0.0 **** 0.06
6364 H 7.982108049717423 60.87102849969398 30.506544993198645 H 0.0 **** 0.06
6365 H 7.717927213752429 59.221101439137385 29.893632175689476 H 0.0 **** 0.06
6366 C 95.55131921133811 56.783133893235956 106.89850789660473 C 0.0 **** -0.24
6367 H 94.81498494499746 57.0362957290456 106.13489028269902 H 0.0 **** 0.06
6368 H 96.01470377224494 57.69657109563406 107.2714289235127 H 0.0 **** 0.06
6369 H 96.31508236402979 56.136402688787534 106.46689528287409 H 0.0 **** 0.06
6370 H 95.05756561848304 56.26386235057035 107.72083775445536 H 0.0 **** 0.06
6371 C 43.3509741760616 56.8947120932519 103.00870664166773 C 0.0 **** -0.24
6372 H 43.340984026898965 57.96763162221616 102.81894177870421 H 0.0 **** 0.06
6373 H 43.31540663237533 56.357387656752074 102.06067589589289 H 0.0 **** 0.06
6374 H 42.48426414578715 56.62463415862418 103.61296118482583 H 0.0 **** 0.06
6375 H 44.26292246826553 56.628802008367934 103.54311004231619 H 0.0 **** 0.06
6376 C 59.45113041249115 38.574618743192445 97.86128534010075 C 0.0 **** -0.24
6377 H 59.130052326507325 39.02747656794335 96.92272816865272 H 0.0 **** 0.06
6378 H 60.00472324144735 37.6597195646459 97.6501471500932 H 0.0 **** 0.06
6379 H 58.57796444676384 38.34006802292532 98.46851093475154 H 0.0 **** 0.06
6380 H 60.09284336687347 39.271893799297914 98.40052914099775 H 0.0 **** 0.06
6381 C 28.773923736294954 49.11418086967146 15.030593331569222 C 0.0 **** -0.24
6382 H 28.754874427710348 49.372740540817965 13.971890407272866 H 0.0 **** 0.06
6383 H 29.660358265495375 48.51577887450203 15.242141826694663 H 0.0 **** 0.06
6384 H 27.88127353584209 48.540707355388896 15.280936345305207 H 0.0 **** 0.06
6385 H 28.799570011986 50.026192064091454 15.627014084878326 H 0.0 **** 0.06
6386 C 28.4717552798366 40.28638509922473 71.4550959442019 C 0.0 **** -0.24
6387 H 28.861283093861402 40.9622782964803 72.2157905528357 H 0.0 **** 0.06
6388 H 27.922901147926268 39.476105798603584 71.9360164246632 H 0.0 **** 0.06
6389 H 29.299576547292588 39.8729043673528 70.87879610002915 H 0.0 **** 0.06
6390 H 27.804223378419465 40.83424567024442 70.78951135088045 H 0.0 **** 0.06
6391 C 1.7253451255183734 79.38504127406219 19.220984471236733 C 0.0 **** -0.24
6392 H 2.421748398758851 78.86958758255511 18.560150301369617 H 0.0 **** 0.06
6393 H 2.259868005698536 80.14967837917615 19.786923848451607 H 0.0 **** 0.06
6394 H 1.279730981080462 78.6678348406175 19.910423981578788 H 0.0 **** 0.06
6395 H 0.9406045794325735 79.85412617612454 18.62768312997352 H 0.0 **** 0.06
6396 C 65.45205891931954 25.59145580412087 109.3161757867532 C 0.0 **** -0.24
6397 H 66.11757822580262 25.22957225905435 108.5327441094716 H 0.0 **** 0.06
6398 H 65.22692886438665 26.643768663511366 109.14410909799062 H 0.0 **** 0.06
6399 H 65.93699153562977 25.47766911093555 110.28576787368536 H 0.0 **** 0.06
6400 H 64.52727007713577 25.01462790999608 109.30290766085997 H 0.0 **** 0.06
6401 C 48.66529902823246 2.7631245993397267 55.55300693912426 C 0.0 **** -0.24
6402 H 48.40452568590989 2.5487980757563964 54.51635159965565 H 0.0 **** 0.06
6403 H 49.71403463861475 2.5173244422796346 55.721778375129475 H 0.0 **** 0.06
6404 H 48.03944895449619 2.165964421402405 56.21659965852618 H 0.0 **** 0.06
6405 H 48.50267316953139 3.8216664901059527 55.75622053710606 H 0.0 **** 0.06
6406 C 78.56538285637819 9.37037680581375 34.43964933165185 C 0.0 **** -0.24
6407 H 78.18866642738647 9.150398248585834 35.438662865735466 H 0.0 **** 0.06
6408 H 77.72748001543641 9.58495321605069 33.77577532717447 H 0.0 **** 0.06
6409 H 79.11811079706311 8.510964194581613 34.06250802796981 H 0.0 **** 0.06
6410 H 79.22512845389548 10.23702099880209 34.48308271295129 H 0.0 **** 0.06
6411 C 17.223748330529872 31.501322196307626 26.80265523678183 C 0.0 **** -0.24
6412 H 16.216520060721905 31.767361739097794 26.481121310712894 H 0.0 **** 0.06
6413 H 17.201663086743565 30.532810096708147 27.30243761677572 H 0.0 **** 0.06
6414 H 17.59572919046468 32.258519010418894 27.493789920732638 H 0.0 **** 0.06
6415 H 17.87989858438624 31.449171162042973 25.934262502775297 H 0.0 **** 0.06
6416 C 32.772181782863925 17.357410545064255 8.140460958209133 C 0.0 **** -0.24
6417 H 33.05050210121968 18.09909305560194 7.391572627766891 H 0.0 **** 0.06
6418 H 31.693185174675932 17.20344093620274 8.115230700575012 H 0.0 **** 0.06
6419 H 33.066201999474345 17.710449086951 9.12878314845102 H 0.0 **** 0.06
6420 H 33.27958796511848 16.41653412289402 7.925064956832216 H 0.0 **** 0.06
6421 C 108.93731180951934 33.38306058011861 67.45932550769743 C 0.0 **** -0.24
6422 H 108.189394025542 32.99617862936341 66.76700605764495 H 0.0 **** 0.06
6423 H 109.16999870377575 32.62301281968115 68.20510367135671 H 0.0 **** 0.06
6424 H 108.5469631169583 34.271682458075816 67.95645524116998 H 0.0 **** 0.06
6425 H 109.84169666671458 33.642880474216554 66.90927231952952 H 0.0 **** 0.06
6426 C 40.15006836340097 84.69197118877341 15.352379092560511 C 0.0 **** -0.24
6427 H 39.22723472631347 84.8765882165047 15.901791931669209 H 0.0 **** 0.06
6428 H 40.70542606699836 83.88632924496393 15.834929456167117 H 0.0 **** 0.06
6429 H 40.75559477949396 85.59803647096307 15.346437305932454 H 0.0 **** 0.06
6430 H 39.91204521618922 84.40648317000183 14.327698929232554 H 0.0 **** 0.06
6431 C 12.460259174182156 37.9489741956005 17.868617100491008 C 0.0 **** -0.24
6432 H 11.503052584124035 37.99693171477668 17.35088125187997 H 0.0 **** 0.06
6433 H 13.215305479151013 37.53734274996293 17.197783614813233 H 0.0 **** 0.06
6434 H 12.366696745851769 37.31053964661214 18.7468148209945 H 0.0 **** 0.06
6435 H 12.75807148467726 38.950973236903565 18.17771517373626 H 0.0 **** 0.06
6436 C 39.4900347271869 59.93811068613326 67.64925309576535 C 0.0 **** -0.24
6437 H 38.5136174263605 60.415720083665036 67.58002671527652 H 0.0 **** 0.06
6438 H 39.548450639353966 59.12411895001621 66.92628011776145 H 0.0 **** 0.06
6439 H 39.630015056020106 59.541163225635614 68.65507719629528 H 0.0 **** 0.06
6440 H 40.268489836561486 60.66981303691357 67.43603228645924 H 0.0 **** 0.06
6441 C 64.4219252790067 67.99836410331572 74.25870127088481 C 0.0 **** -0.24
6442 H 65.40542040886828 67.53601633821344 74.17223302866662 H 0.0 **** 0.06
6443 H 63.81091344756362 67.42172582710181 74.9546192293862 H 0.0 **** 0.06
6444 H 63.94140185939966 68.01610309192165 73.28026810661612 H 0.0 **** 0.06
6445 H 64.53165283348227 69.0173825348124 74.62916333709552 H 0.0 **** 0.06
6446 C 52.99394741757388 13.318577086198214 71.81460922960244 C 0.0 **** -0.24
6447 H 53.04593659415082 12.59355450572227 72.62651761086562 H 0.0 **** 0.06
6448 H 53.18985736302264 14.317215463780617 72.20604324184416 H 0.0 **** 0.06
6449 H 51.9993484830602 13.292097216074453 71.36717237414405 H 0.0 **** 0.06
6450 H 53.73831945249276 13.072196013503135 71.05859440353032 H 0.0 **** 0.06
6451 C 6.9097330431688135 67.8797774083108 17.880937059168332 C 0.0 **** -0.24
6452 H 7.798025665627208 68.29075536129307 17.401703108928814 H 0.0 **** 0.06
6453 H 6.893790809741901 68.17474239308132 18.929874301244183 H 0.0 **** 0.06
6454 H 6.927877293717984 66.79268522175182 17.808354754311438 H 0.0 **** 0.06
6455 H 6.018143023606001 68.26253481244974 17.382328027700595 H 0.0 **** 0.06
6456 C 97.80447424993292 8.162940748964445 107.5985337507181 C 0.0 **** -0.24
6457 H 98.0300724397556 8.838023235430171 108.4237306549184 H 0.0 **** 0.06
6458 H 97.61519363875078 8.74385407954064 106.69567693342285 H 0.0 **** 0.06
6459 H 96.9216107343907 7.5724372050163 107.84451437578946 H 0.0 **** 0.06
6460 H 98.65173810839099 7.497052096269783 107.43252123481861 H 0.0 **** 0.06
6461 C 3.3861920191792194 2.9559221860646687 46.21895269514826 C 0.0 **** -0.24
6462 H 4.086596582494593 2.228782912137561 46.6299208104661 H 0.0 **** 0.06
6463 H 3.4578978955069886 3.8867383097141044 46.78129374735411 H 0.0 **** 0.06
6464 H 2.3717091745120626 2.565310949145754 46.291700412620116 H 0.0 **** 0.06
6465 H 3.6295621684209607 3.1429099560578493 45.172854502772054 H 0.0 **** 0.06
6466 C 86.37380836017263 62.42330113812922 26.806857252256265 C 0.0 **** -0.24
6467 H 85.82916169047621 62.55708364170955 27.74135074931985 H 0.0 **** 0.06
6468 H 87.17697858894905 63.158670766343946 26.74661586215214 H 0.0 **** 0.06
6469 H 85.69283518916535 62.558682015359935 25.967571639341088 H 0.0 **** 0.06
6470 H 86.79700526028088 61.41931807341584 26.77415778686344 H 0.0 **** 0.06
6471 C 41.05399780843311 14.316674174638024 43.229659800545505 C 0.0 **** -0.24
6472 H 40.01509698650415 13.999935788740856 43.132696988763826 H 0.0 **** 0.06
6473 H 41.47751242734796 14.481066859844574 42.23832568583026 H 0.0 **** 0.06
6474 H 41.62243192927235 13.542469934600035 43.74413648940862 H 0.0 **** 0.06
6475 H 41.09863753745313 15.242777338352823 43.8028064578464 H 0.0 **** 0.06
6476 C 89.70730815558753 6.731657360423668 7.047907804671752 C 0.0 **** -0.24
6477 H 90.21172185413343 7.633020676063893 6.699385395247276 H 0.0 **** 0.06
6478 H 90.44517834297847 6.0285994345823894 7.434551063257928 H 0.0 **** 0.06
6479 H 89.16841348327222 6.274419367673119 6.217671786220407 H 0.0 **** 0.06
6480 H 89.00311823923948 6.99179904789392 7.839075800054246 H 0.0 **** 0.06
6481 C 74.25706605596343 57.095075504005536 6.736907353713988 C 0.0 **** -0.24
6482 H 74.39826799780474 57.58276564757102 7.701771194107465 H 0.0 **** 0.06
6483 H 73.60566475822628 57.70700539016582 6.113171020393452 H 0.0 **** 0.06
6484 H 73.80308440070411 56.11618172199587 6.887832614787982 H 0.0 **** 0.06
6485 H 75.22367348308956 56.97576974761557 6.24590108250726 H 0.0 **** 0.06
6486 C 99.2294007495141 27.050216337922905 46.27934940612715 C 0.0 **** -0.24
6487 H 99.68087367017205 26.130281650873684 46.65071476896139 H 0.0 **** 0.06
6488 H 99.3910703928943 27.124808955692203 45.202785028391816 H 0.0 **** 0.06
6489 H 99.68537741141972 27.90611855116063 46.7759906253288 H 0.0 **** 0.06
6490 H 98.15868430737697 27.03795118165624 46.48498444163988 H 0.0 **** 0.06
6491 C 33.79709639649997 51.03035789119042 35.62100862223815 C 0.0 **** -0.24
6492 H 32.935977360518166 51.05476181418351 36.28865022225156 H 0.0 **** 0.06
6493 H 34.43572455197119 50.18567147461573 35.88350415776475 H 0.0 **** 0.06
6494 H 34.361743370702584 51.957408656265585 35.721525034994045 H 0.0 **** 0.06
6495 H 33.4552340189033 50.92178655275191 34.59164461966793 H 0.0 **** 0.06
6496 C 72.06315847608755 6.887391624174642 98.70868423676862 C 0.0 **** -0.24
6497 H 71.5471012610069 7.808169278154104 98.97761591058944 H 0.0 **** 0.06
6498 H 72.25444700400504 6.301456758293398 99.60767806059692 H 0.0 **** 0.06
6499 H 73.00936909347797 7.129098574284463 98.2248618859179 H 0.0 **** 0.06
6500 H 71.44262964765824 6.310378721905467 98.02360547567548 H 0.0 **** 0.06
6501 C 80.84581611980093 24.557810981544208 100.60939212817817 C 0.0 **** -0.24
6502 H 81.8626603526701 24.93300928173727 100.49663188184564 H 0.0 **** 0.06
6503 H 80.76964572958559 23.98602731986739 101.5344961232442 H 0.0 **** 0.06
6504 H 80.60099927475324 23.914142088892618 99.76408096257217 H 0.0 **** 0.06
6505 H 80.15053053285521 25.396497438220763 100.64056628035615 H 0.0 **** 0.06
6506 C 58.55257144594418 81.3223128885605 62.49004684529035 C 0.0 **** -0.24
6507 H 59.13755029319577 82.23127094360649 62.347124132245455 H 0.0 **** 0.06
6508 H 59.22612261340521 80.4817529731232 62.6622380293675 H 0.0 **** 0.06
6509 H 57.95320309746057 81.13221680915382 61.60059035509457 H 0.0 **** 0.06
6510 H 57.89666884768786 81.44509435772395 63.35171983371703 H 0.0 **** 0.06
6511 C 4.988726097458908 23.232556127208955 83.86360614361763 C 0.0 **** -0.24
6512 H 4.211219314902991 23.330685075573566 83.10513541816192 H 0.0 **** 0.06
6513 H 4.910384352649572 24.05693656719333 84.5720638362468 H 0.0 **** 0.06
6514 H 5.967408888389656 23.254871899824835 83.38510240925382 H 0.0 **** 0.06
6515 H 4.862969204741233 22.28686211458971 84.3908175830133 H 0.0 **** 0.06
6516 C 38.724784980048184 5.435828636569383 3.137500810259496 C 0.0 **** -0.24
6517 H 39.474906135591 5.739728658203219 2.4079195236926125 H 0.0 **** 0.06
6518 H 38.80637429661692 6.065611275411172 4.02487333851343 H 0.0 **** 0.06
6519 H 38.8875769885411 4.395054206226973 3.41444868754121 H 0.0 **** 0.06
6520 H 37.730611052513666 5.545630848196851 2.7040050754876575 H 0.0 **** 0.06
6521 C 79.47104907126388 57.776823990918786 11.036674892559802 C 0.0 **** -0.24
6522 H 79.2949917648625 56.78665352122363 11.455814582943844 H 0.0 **** 0.06
6523 H 78.76251086697559 57.95923152694314 10.228595084261713 H 0.0 **** 0.06
6524 H 80.48776087892546 57.830433212205236 10.647141806277347 H 0.0 **** 0.06
6525 H 79.3388856313916 58.52915802423874 11.81350893754265 H 0.0 **** 0.06
6526 C 16.551879846768315 90.56519691033898 101.63975914718556 C 0.0 **** -0.24
6527 H 16.19904590539224 91.3347434474336 100.95232750874068 H 0.0 **** 0.06
6528 H 16.217361400396953 90.80101957092211 102.65040299415794 H 0.0 **** 0.06
6529 H 17.641035163211868 90.52988091683739 101.61589831574436 H 0.0 **** 0.06
6530 H 16.14877767796139 89.59806102715646 101.3390654557126 H 0.0 **** 0.06
6531 C 82.38157841186921 90.52340631622279 24.934063805160815 C 0.0 **** -0.24
6532 H 81.99517825578661 91.54204790830103 24.895682758038856 H 0.0 **** 0.06
6533 H 83.43662667673462 90.54571474827874 25.20990512871996 H 0.0 **** 0.06
6534 H 82.27165818991179 90.05710495279374 23.95474696659344 H 0.0 **** 0.06
6535 H 81.82349861430566 89.9516852283309 25.674502678064382 H 0.0 **** 0.06
6536 C 106.83615163562446 6.469430036443688 56.54177631177299 C 0.0 **** -0.24
6537 H 105.89947557535183 6.485151427789688 55.98223829913101 H 0.0 **** 0.06
6538 H 107.18535918282943 5.441302719526616 56.635856913660234 H 0.0 **** 0.06
6539 H 106.67316114961038 6.891589954662011 57.533542404277 H 0.0 **** 0.06
6540 H 107.58359708593868 7.060549425073951 56.01342889938468 H 0.0 **** 0.06
6541 C 6.798831786627886 58.77045302340454 102.87389559887582 C 0.0 **** -0.24
6542 H 6.6472533862028484 57.70723222066215 102.68592110991999 H 0.0 **** 0.06
6543 H 5.893343229339337 59.19461723054354 103.30758679308968 H 0.0 **** 0.06
6544 H 7.023741104096331 59.276535340815656 101.93444873619865 H 0.0 **** 0.06
6545 H 7.630101473186642 58.90169128774062 103.56653120530288 H 0.0 **** 0.06
6546 C 45.70856861465878 33.71781013319628 108.70675666284966 C 0.0 **** -0.24
6547 H 45.70852527958439 34.03776623642827 107.66460025843422 H 0.0 **** 0.06
6548 H 45.55173961821691 34.582459307154764 109.35168017539286 H 0.0 **** 0.06
6549 H 46.66704462584134 33.25536466318029 108.94409992545559 H 0.0 **** 0.06
6550 H 44.90717011133897 32.99541697453381 108.86443186273486 H 0.0 **** 0.06
6551 C 4.165373476851533 7.267455280230848 38.996564304175536 C 0.0 **** -0.24
6552 H 3.93608214388634 7.314787594209605 37.93264093621423 H 0.0 **** 0.06
6553 H 3.272443758851182 7.512100623787262 39.572876804290615 H 0.0 **** 0.06
6554 H 4.954698804622241 7.982047749597285 39.22953637456459 H 0.0 **** 0.06
6555 H 4.498640731100968 6.261679421775142 39.253260126193425 H 0.0 **** 0.06
6556 C 12.247125604513371 81.78285760403878 54.08488438099515 C 0.0 **** -0.24
6557 H 12.954744316631434 81.10281632854658 53.60890899718081 H 0.0 **** 0.06
6558 H 12.748801988486264 82.3262234715688 54.88629766820937 H 0.0 **** 0.06
6559 H 11.415347461401808 81.21153103070974 54.49702019803732 H 0.0 **** 0.06
6560 H 11.87150113414799 82.49073892143613 53.3452120071387 H 0.0 **** 0.06
6561 C 35.74852626103274 41.643808193548296 61.28867269237712 C 0.0 **** -0.24
6562 H 36.01519334344681 40.86294418396735 60.575749148485684 H 0.0 **** 0.06
6563 H 35.7404333629205 42.60893837907162 60.78338858273547 H 0.0 **** 0.06
6564 H 36.481196770507324 41.66226943013035 62.095394430592066 H 0.0 **** 0.06
6565 H 34.760356395684 41.43843352400605 61.69942491653984 H 0.0 **** 0.06
6566 C 16.67100976756467 52.29814454861122 20.53887894404363 C 0.0 **** -0.24
6567 H 16.38467178518772 52.46268961568413 21.578223162027456 H 0.0 **** 0.06
6568 H 16.6850004235759 51.22836925931688 20.33127370305695 H 0.0 **** 0.06
6569 H 17.663206034982636 52.71430351705561 20.365552308771242 H 0.0 **** 0.06
6570 H 15.951168203112786 52.78699834189979 19.88218497514262 H 0.0 **** 0.06
6571 C 100.10280847631026 59.9294840803189 101.79391459014202 C 0.0 **** -0.24
6572 H 100.96381671526572 60.12250510702572 101.15321840031824 H 0.0 **** 0.06
6573 H 100.12439596973755 60.60973994808651 102.64561983449738 H 0.0 **** 0.06
6574 H 100.13737436166016 58.89994509240398 102.14829075632217 H 0.0 **** 0.06
6575 H 99.18683039541793 60.08822949345125 101.22545801693568 H 0.0 **** 0.06
6576 C 95.36451045524517 19.09933631513752 104.36678636727845 C 0.0 **** -0.24
6577 H 96.05794373066325 19.571855891949326 105.06192546686026 H 0.0 **** 0.06
6578 H 95.89827173330389 18.814559981738626 103.4602670982446 H 0.0 **** 0.06
6579 H 94.56897225963627 19.800714290893126 104.11565140992843 H 0.0 **** 0.06
6580 H 94.93399480481328 18.211967333508156 104.83057771797542 H 0.0 **** 0.06
6581 C 80.83202668680582 27.828309108766575 0.15893424083239704 C 0.0 **** -0.24
6582 H 80.57709187337572 28.887669497485035 0.19113174830769886 H 0.0 **** 0.06
6583 H 79.95073473022802 27.234960071610487 0.4038552516590812 H 0.0 **** 0.06
6584 H 81.62261340827963 27.623017045692507 0.8802244977825842 H 0.0 **** 0.06
6585 H 81.17841709961006 27.568403615173054 -0.8422629277294313 H 0.0 **** 0.06
6586 C 104.79689470206297 14.535939446865342 108.11323586418317 C 0.0 **** -0.24
6587 H 103.78427554608517 14.194959550413245 107.89898369487284 H 0.0 **** 0.06
6588 H 104.83308065206657 14.956721693598467 109.11913339621931 H 0.0 **** 0.06
6589 H 105.0850033202258 15.298442743409339 107.38960750105677 H 0.0 **** 0.06
6590 H 105.4858465057518 13.693286863290467 108.04643801766163 H 0.0 **** 0.06
6591 C 81.07927956768953 78.40714324171047 50.22724942171129 C 0.0 **** -0.24
6592 H 80.68424108867607 77.54903554749876 50.77184532004361 H 0.0 **** 0.06
6593 H 81.61144952709093 79.06171014927898 50.91811931093426 H 0.0 **** 0.06
6594 H 80.25708434917144 78.95585688341575 49.7685019993138 H 0.0 **** 0.06
6595 H 81.76401556226705 78.06276293881278 49.45259616985865 H 0.0 **** 0.06
6596 C 83.48559629200003 22.63149057441715 90.72190416543697 C 0.0 **** -0.24
6597 H 83.04992881253344 23.437066195492257 91.31269991212388 H 0.0 **** 0.06
6598 H 84.00899780306125 21.939394198172756 91.38159979952852 H 0.0 **** 0.06
6599 H 84.18904103261355 23.050779935727878 90.00159460686592 H 0.0 **** 0.06
6600 H 82.69445749896562 22.1015920436055 90.19084969485593 H 0.0 **** 0.06
6601 C 101.9474012485349 82.35976944075416 8.664238561125131 C 0.0 **** -0.24
6602 H 101.6523434920581 81.99036776109688 9.646181107396586 H 0.0 **** 0.06
6603 H 103.00543881844513 82.62218482723087 8.67832929622648 H 0.0 **** 0.06
6604 H 101.35671391191292 83.24196105335318 8.41578266554231 H 0.0 **** 0.06
6605 H 101.7751139769311 81.58501226200288 7.918002533579909 H 0.0 **** 0.06
6606 C 48.89052177867314 4.049595640631281 28.68581832319707 C 0.0 **** -0.24
6607 H 48.215609579101475 3.2162714940124033 28.88017169558556 H 0.0 **** 0.06
6608 H 48.521258319822074 4.942483973593113 29.19018999256921 H 0.0 **** 0.06
6609 H 48.93970091103009 4.232790764769987 27.612309665804773 H 0.0 **** 0.06
6610 H 49.88537601405337 3.8057557469947767 29.058649417090713 H 0.0 **** 0.06
6611 C 87.73464397416018 80.94871683561581 56.26987784465746 C 0.0 **** -0.24
6612 H 87.66389455683475 82.03413827958258 56.343923089518114 H 0.0 **** 0.06
6613 H 88.40063362424972 80.68351596652735 55.44829206903404 H 0.0 **** 0.06
6614 H 86.74519576478212 80.53204645245683 56.0845785209263 H 0.0 **** 0.06
6615 H 88.12982062624725 80.54604423775766 57.20217770291407 H 0.0 **** 0.06
6616 C 84.69667375274378 40.5408688217212 5.560162075831826 C 0.0 **** -0.24
6617 H 84.19914995298018 41.28930933414933 6.176874105556891 H 0.0 **** 0.06
6618 H 84.67794264376573 40.85841495908784 4.517608739259728 H 0.0 **** 0.06
6619 H 84.17958355179479 39.586467138355 5.659535191167549 H 0.0 **** 0.06
6620 H 85.73072026323814 40.430442367614035 5.8877100982339385 H 0.0 **** 0.06
6621 C 27.111695619405793 40.81976257635722 44.579469431676756 C 0.0 **** -0.24
6622 H 26.50867323543153 40.834157544962125 45.4882178732953 H 0.0 **** 0.06
6623 H 26.636076335964134 41.43823560766555 43.818669693133714 H 0.0 **** 0.06
6624 H 27.194502345479577 39.795185004982955 44.2163431062296 H 0.0 **** 0.06
6625 H 28.105572780018207 41.20965591601225 44.7972679489891 H 0.0 **** 0.06
6626 C 28.648974980836563 105.93590276990824 48.84360210709286 C 0.0 **** -0.24
6627 H 27.58447689671862 106.04776233180274 48.63643030700689 H 0.0 **** 0.06
6628 H 29.159224089993664 106.87839852205809 48.64189308802662 H 0.0 **** 0.06
6629 H 29.06296597489628 105.15455145674542 48.20665436925782 H 0.0 **** 0.06
6630 H 28.788514524185587 105.66359225178473 49.88948524149933 H 0.0 **** 0.06
6631 C 36.241834133225495 45.03275143110639 93.28299756237674 C 0.0 **** -0.24
6632 H 36.971528443042075 45.17854946626852 92.48754490576493 H 0.0 **** 0.06
6633 H 35.746301588931715 45.979770762693704 93.50022974247808 H 0.0 **** 0.06
6634 H 36.74810847644267 44.67256830217511 94.17845010460529 H 0.0 **** 0.06
6635 H 35.50055789886639 44.299834471152735 92.96530256395928 H 0.0 **** 0.06
6636 C 57.26761197394353 95.45179942767845 76.75864105702885 C 0.0 **** -0.24
6637 H 58.01623407571012 96.16909630341135 77.09285346264932 H 0.0 **** 0.06
6638 H 57.347123450184554 94.54061316430605 77.35259092374153 H 0.0 **** 0.06
6639 H 57.43230364814911 95.21678827511374 75.7076576055158 H 0.0 **** 0.06
6640 H 56.273149921735204 95.88082759195828 76.88260451290705 H 0.0 **** 0.06
6641 C 5.448433829649645 55.65115019696882 100.12766681753958 C 0.0 **** -0.24
6642 H 5.5660523586340105 54.756786963529684 99.51485101394557 H 0.0 **** 0.06
6643 H 5.470397373250307 55.37467870930492 101.18187409838312 H 0.0 **** 0.06
6644 H 4.4962498729450715 56.12818095237218 99.89516038168001 H 0.0 **** 0.06
6645 H 6.2627013385534696 56.3445426772422 99.9163207154556 H 0.0 **** 0.06
6646 C 82.17081625892075 84.87323310017922 15.840051952826911 C 0.0 **** -0.24
6647 H 81.6110716944167 84.09713016862506 16.36135329649204 H 0.0 **** 0.06
6648 H 82.40188035768938 85.6822728624175 16.532730731729117 H 0.0 **** 0.06
6649 H 81.57123055716403 85.2614476053439 15.015457840586805 H 0.0 **** 0.06
6650 H 83.09659651573156 84.45240120944464 15.449017109936122 H 0.0 **** 0.06
6651 C 66.18868126644128 95.97867987697721 39.596145539113934 C 0.0 **** -0.24
6652 H 66.58226130934537 95.52771708889017 38.68531999835966 H 0.0 **** 0.06
6653 H 66.76497307495691 95.62823725372601 40.453328518983454 H 0.0 **** 0.06
6654 H 65.14365899570612 95.69386249908752 39.719848399593275 H 0.0 **** 0.06
6655 H 66.26364601036147 97.06419436765592 39.526766332287536 H 0.0 **** 0.06
6656 C 84.4508990249706 74.58022115650306 22.687775548453686 C 0.0 **** -0.24
6657 H 84.89409078005927 73.77843714270858 23.278455944785605 H 0.0 **** 0.06
6658 H 85.16886817316528 74.92004804326154 21.941013285049678 H 0.0 **** 0.06
6659 H 84.18697304955349 75.4099766424705 23.342753967213014 H 0.0 **** 0.06
6660 H 83.55411538939009 74.21049008981521 22.18990915390765 H 0.0 **** 0.06
6661 C 16.228279874502988 40.18639506947642 63.053840714405226 C 0.0 **** -0.24
6662 H 16.940725122878348 39.368694149769425 63.16084452520603 H 0.0 **** 0.06
6663 H 16.45376427673318 40.74666703070628 62.146340859243836 H 0.0 **** 0.06
6664 H 16.302058079416668 40.84818669093393 63.91740862836292 H 0.0 **** 0.06
6665 H 15.217858021764783 39.782588555610914 62.99096118331538 H 0.0 **** 0.06
6666 C 15.390624189244022 27.31948034109263 96.80597500117352 C 0.0 **** -0.24
6667 H 15.26315046010933 27.129025627341093 95.74104014883876 H 0.0 **** 0.06
6668 H 15.381898857268823 28.39437624947169 96.9861013711561 H 0.0 **** 0.06
6669 H 16.3413498854149 26.90187320916914 97.13815239779002 H 0.0 **** 0.06
6670 H 14.575217563518095 26.85138439379341 97.35781021484915 H 0.0 **** 0.06
6671 C 80.55545838770155 5.68722010444397 97.95419729813764 C 0.0 **** -0.24
6672 H 80.405100121141 5.1155718552729414 98.87006330310379 H 0.0 **** 0.06
6673 H 80.57167806297343 6.751221173269734 98.1887659989431 H 0.0 **** 0.06
6674 H 79.74055547089102 5.480683593789658 97.26026806747515 H 0.0 **** 0.06
6675 H 81.50335426025822 5.399702174465169 97.49903059206332 H 0.0 **** 0.06
6676 C 89.30531286004778 38.22405858866085 42.34338940882287 C 0.0 **** -0.24
6677 H 89.51103046870963 38.41115237482836 43.39704780466434 H 0.0 **** 0.06
6678 H 90.1984303241418 37.823324115837124 41.864133806302846 H 0.0 **** 0.06
6679 H 89.0194520291291 39.157396158338884 41.85874788109395 H 0.0 **** 0.06
6680 H 88.49110747602604 37.50517987600375 42.25453093601685 H 0.0 **** 0.06
6681 C 75.60417995535813 1.4918069517745778 31.536024699557217 C 0.0 **** -0.24
6682 H 76.53254480257056 1.5452206135063307 32.10430150909087 H 0.0 **** 0.06
6683 H 74.88149195761301 0.8790527144300313 32.07591285600385 H 0.0 **** 0.06
6684 H 75.80187015220285 1.0469743943837102 30.560223748065148 H 0.0 **** 0.06
6685 H 75.20212306966951 2.495821266330509 31.40185555250487 H 0.0 **** 0.06
6686 C 33.74901397897773 13.91300848356451 23.40100841733505 C 0.0 **** -0.24
6687 H 33.92579219444161 13.63914196398396 24.440963915610695 H 0.0 **** 0.06
6688 H 32.6758777645685 13.937211483846099 23.209888625808873 H 0.0 **** 0.06
6689 H 34.21828109059473 13.178139332448637 22.747387318814987 H 0.0 **** 0.06
6690 H 34.17562992838195 14.897342243313062 23.20665108272655 H 0.0 **** 0.06
6691 C 37.45342400344674 47.79920246776305 48.31161703655776 C 0.0 **** -0.24
6692 H 38.48165565461164 47.44884272516515 48.396449467652836 H 0.0 **** 0.06
6693 H 37.299693764941026 48.24276791098157 47.32776105764764 H 0.0 **** 0.06
6694 H 37.25991468442555 48.54720050649894 49.08176120374876 H 0.0 **** 0.06
6695 H 36.77099153987976 46.95917918151105 48.44284850367138 H 0.0 **** 0.06
6696 C 6.581283642359466 71.23240427338942 58.8269235011183 C 0.0 **** -0.24
6697 H 6.649147204724869 72.28085663517868 58.53457250324715 H 0.0 **** 0.06
6698 H 5.947453612020865 71.14308065171491 59.7094039064676 H 0.0 **** 0.06
6699 H 7.5774253347381375 70.8533310390352 59.05378478746246 H 0.0 **** 0.06
6700 H 6.148961316741634 70.65483601357352 58.00948102304761 H 0.0 **** 0.06
6701 C 50.21047166723821 12.650527407601942 62.693898916180146 C 0.0 **** -0.24
6702 H 50.812935104349975 12.252434332945398 63.510031592262905 H 0.0 **** 0.06
6703 H 50.780822908127504 12.606005384733294 61.7660788278384 H 0.0 **** 0.06
6704 H 49.946796178659156 13.686152912800878 62.90889408177132 H 0.0 **** 0.06
6705 H 49.301350627701424 12.058210221746691 62.591311692957206 H 0.0 **** 0.06
6706 C 9.026418999105005 36.71697232539802 95.16455756111918 C 0.0 **** -0.24
6707 H 9.270043425333967 36.52369427889698 96.20981621671682 H 0.0 **** 0.06
6708 H 8.217383522173634 37.445539149302505 95.10946802133797 H 0.0 **** 0.06
6709 H 8.713000923865081 35.78757351289153 94.68796772415557 H 0.0 **** 0.06
6710 H 9.905321451084461 37.10937754790368 94.65382236073053 H 0.0 **** 0.06
6711 C 12.64354979438562 64.26384603098285 5.992412704042948 C 0.0 **** -0.24
6712 H 13.162024204005121 63.33282712337193 5.758958119214199 H 0.0 **** 0.06
6713 H 13.09675013384944 64.72075150455277 6.872107366735548 H 0.0 **** 0.06
6714 H 11.5930313444033 64.05302216185713 6.19231303045828 H 0.0 **** 0.06
6715 H 12.72253798919931 64.94504663142897 5.146142423144681 H 0.0 **** 0.06
6716 C 63.86370345301964 66.35729954366286 70.22316881420221 C 0.0 **** -0.24
6717 H 64.93131643039874 66.57148269459958 70.17163258535453 H 0.0 **** 0.06
6718 H 63.52316364242023 65.97817363722595 69.25867198179515 H 0.0 **** 0.06
6719 H 63.32212797493037 67.2704080150196 70.46717231908667 H 0.0 **** 0.06
6720 H 63.6801504900389 65.60842407774783 70.99302702474887 H 0.0 **** 0.06
6721 C 75.60026634635068 70.66249360197412 67.15205424356293 C 0.0 **** -0.24
6722 H 76.22402964468117 69.80895464455824 66.88604959640577 H 0.0 **** 0.06
6723 H 76.09812751480928 71.58416146472376 66.84983660789737 H 0.0 **** 0.06
6724 H 75.4406537386285 70.67256031098424 68.23006830646409 H 0.0 **** 0.06
6725 H 74.64015105530063 70.58321061795067 66.6427324684513 H 0.0 **** 0.06
6726 C 87.44969352730224 105.41244967683195 3.5904342193043703 C 0.0 **** -0.24
6727 H 87.39885138731813 105.56451289376528 2.5122344585211636 H 0.0 **** 0.06
6728 H 86.4731852515417 105.61387754683645 4.03237010899403 H 0.0 **** 0.06
6729 H 88.1894248814698 106.08910931527738 4.018283634226833 H 0.0 **** 0.06
6730 H 87.73673464021168 104.38177093875035 3.7982263994320533 H 0.0 **** 0.06
6731 C 26.22233458229431 76.817256805239 15.294421721910496 C 0.0 **** -0.24
6732 H 25.84432368598931 75.80543137308092 15.441560880048321 H 0.0 **** 0.06
6733 H 26.756622325644912 77.13918554631567 16.187845650923858 H 0.0 **** 0.06
6734 H 25.38768762383623 77.49165708611604 15.105655917933618 H 0.0 **** 0.06
6735 H 26.899931261283456 76.83100352830472 14.439915021416287 H 0.0 **** 0.06
6736 C 71.20731125222954 102.55801018681308 1.845688797720456 C 0.0 **** -0.24
6737 H 70.69040455462044 101.77652948540609 1.2896418639082867 H 0.0 **** 0.06
6738 H 72.14779666228776 102.79589833958823 1.3481505473435647 H 0.0 **** 0.06
6739 H 71.41053465459015 102.20897255453536 2.8588698874709877 H 0.0 **** 0.06
6740 H 70.58142314889415 103.44949279684431 1.8877804678870973 H 0.0 **** 0.06
6741 C 88.4002482843859 46.445285516827795 55.466836438334724 C 0.0 **** -0.24
6742 H 88.87156875077548 45.48144220739749 55.273249296596106 H 0.0 **** 0.06
6743 H 88.9502684006778 46.96822195974394 56.25014562619313 H 0.0 **** 0.06
6744 H 87.37025367386617 46.28834355259073 55.7879660263759 H 0.0 **** 0.06
6745 H 88.40968413333536 47.043296243358554 54.55538264551336 H 0.0 **** 0.06
6746 C 77.77617435209623 71.23951683015272 45.252087788271695 C 0.0 **** -0.24
6747 H 78.83789784784605 70.99824592878824 45.30107168801243 H 0.0 **** 0.06
6748 H 77.23508274256773 70.64923764106629 45.99165469913811 H 0.0 **** 0.06
6749 H 77.39695043027291 71.01083991105828 44.25650006872888 H 0.0 **** 0.06
6750 H 77.63537838101166 72.30059458433469 45.46007432705153 H 0.0 **** 0.06
6751 C 80.93617146853248 71.21344126519278 89.71769448996514 C 0.0 **** -0.24
6752 H 81.82191693705971 71.12636662744643 89.0877279198247 H 0.0 **** 0.06
6753 H 80.48284688996529 72.1942522111151 89.57115909856009 H 0.0 **** 0.06
6754 H 81.22090906096517 71.0967889013491 90.76322477582242 H 0.0 **** 0.06
6755 H 80.2200671857155 70.43835297321266 89.44668968371306 H 0.0 **** 0.06
6756 C 39.827317950640975 33.84237107610924 26.17143308607288 C 0.0 **** -0.24
6757 H 40.52751751051704 33.131481475293576 25.732734539230194 H 0.0 **** 0.06
6758 H 40.21681362666055 34.853683060435976 26.055583869331315 H 0.0 **** 0.06
6759 H 39.70113894654594 33.6203499382039 27.23112801378494 H 0.0 **** 0.06
6760 H 38.86484567818701 33.7630189348151 25.66620817000117 H 0.0 **** 0.06
6761 C 50.997588925947355 71.30813725302409 27.562429504480065 C 0.0 **** -0.24
6762 H 50.38607506067325 72.16630355232923 27.285291968008153 H 0.0 **** 0.06
6763 H 50.960916238503614 70.56338516206165 26.766291710994523 H 0.0 **** 0.06
6764 H 50.61479608641372 70.87253635668372 28.485291551064876 H 0.0 **** 0.06
6765 H 52.028695286006496 71.62951558081602 27.712267911779293 H 0.0 **** 0.06
6766 C 21.36724631727911 93.90363218662884 51.91246014514837 C 0.0 **** -0.24
6767 H 20.469404733468593 94.52295350776222 51.89086023558821 H 0.0 **** 0.06
6768 H 21.905350859966873 94.07770777823913 52.844347510293005 H 0.0 **** 0.06
6769 H 22.007370604434954 94.16157884512978 51.06867504813903 H 0.0 **** 0.06
6770 H 21.084838536572448 92.8531643835181 51.84634601014409 H 0.0 **** 0.06
6771 C 42.9264977146176 44.92637042456414 37.725424129631165 C 0.0 **** -0.24
6772 H 43.71568982307366 44.38793185358139 38.25110809665179 H 0.0 **** 0.06
6773 H 43.06291897777652 44.812481773929335 36.65007792024909 H 0.0 **** 0.06
6774 H 42.97129346120977 45.983465241568865 37.98860046361443 H 0.0 **** 0.06
6775 H 41.95657270867707 44.5208081640493 38.014175968265704 H 0.0 **** 0.06
6776 C 50.98087236230553 18.977543943680928 15.787164519952668 C 0.0 **** -0.24
6777 H 51.64205023337658 18.11529045539362 15.878201044590586 H 0.0 **** 0.06
6778 H 49.952305538861964 18.667317161787935 15.97376983041821 H 0.0 **** 0.06
6779 H 51.05958031023601 19.38972375355712 14.780831691908649 H 0.0 **** 0.06
6780 H 51.27019363974266 19.734901740802513 16.51446579029649 H 0.0 **** 0.06
6781 C 89.3500985872325 103.06715732289734 64.10337238026301 C 0.0 **** -0.24
6782 H 89.95054836857894 103.88222348214885 63.698852789155865 H 0.0 **** 0.06
6783 H 89.90357886111846 102.13154044952671 64.01748544742398 H 0.0 **** 0.06
6784 H 88.41752726198243 102.99115867834877 63.54322253541335 H 0.0 **** 0.06
6785 H 89.12947234506844 103.26507251292873 65.15231685141504 H 0.0 **** 0.06
6786 C 61.68429428970802 77.54568087630736 66.78671150796711 C 0.0 **** -0.24
6787 H 61.845025207442916 76.56421361318539 66.34046555108077 H 0.0 **** 0.06
6788 H 60.99698785492984 78.11965061400264 66.16458088931026 H 0.0 **** 0.06
6789 H 62.63619282429998 78.07193237613797 66.85963211751314 H 0.0 **** 0.06
6790 H 61.25874614635889 77.42593766894407 67.78315278387399 H 0.0 **** 0.06
6791 C 7.722930294389588 14.794504622213026 108.94813268366786 C 0.0 **** -0.24
6792 H 8.228426214897032 14.317262060622056 109.78839296215408 H 0.0 **** 0.06
6793 H 8.16741809877432 15.773941523934013 108.76667774619479 H 0.0 **** 0.06
6794 H 6.6645739853066175 14.91258565857197 109.18103967225636 H 0.0 **** 0.06
6795 H 7.8331412280402315 14.17361057288906 108.05911075556003 H 0.0 **** 0.06
6796 C 3.9893835996096527 21.612972638190485 22.909014846473355 C 0.0 **** -0.24
6797 H 2.9645750314674046 21.302641761920256 22.70683182244136 H 0.0 **** 0.06
6798 H 4.16665856280423 22.591654838842942 22.462851635296715 H 0.0 **** 0.06
6799 H 4.679152024233986 20.886892381617002 22.479567748654745 H 0.0 **** 0.06
6800 H 4.145157360549774 21.670276096653396 23.985446739738393 H 0.0 **** 0.06
6801 C 42.03492599325551 81.81483465593317 17.427205767371362 C 0.0 **** -0.24
6802 H 42.989255538781094 81.55933888537643 16.96557718972366 H 0.0 **** 0.06
6803 H 41.858219799276924 82.88555151585477 17.32592308833452 H 0.0 **** 0.06
6804 H 42.06100653951563 81.54918661720913 18.48441711317531 H 0.0 **** 0.06
6805 H 41.23382306588769 81.26493503340761 16.93436470172523 H 0.0 **** 0.06
6806 C 33.6753465923931 67.13633000614615 44.00965608723284 C 0.0 **** -0.24
6807 H 33.24343379848845 68.0962673060352 44.294000281105454 H 0.0 **** 0.06
6808 H 33.84265074374944 66.53523383631267 44.90417363685341 H 0.0 **** 0.06
6809 H 34.624097481897316 67.30228810915912 43.49978698837618 H 0.0 **** 0.06
6810 H 32.99026890036088 66.61310659153156 43.34303877091643 H 0.0 **** 0.06
6811 C 56.76161245081747 37.325059856355665 43.41990403487631 C 0.0 **** -0.24
6812 H 55.815586016142674 37.716049594237234 43.0466603800092 H 0.0 **** 0.06
6813 H 57.50094239589712 38.12657038679754 43.444623285489115 H 0.0 **** 0.06
6814 H 57.1105440473068 36.52855473295779 42.762683985603275 H 0.0 **** 0.06
6815 H 56.619957016125056 36.93095038676449 44.42597774037165 H 0.0 **** 0.06
6816 C 86.92204047194656 57.163872064966284 33.94697195585843 C 0.0 **** -0.24
6817 H 87.82648974471235 56.63019619941832 34.23776124709033 H 0.0 **** 0.06
6818 H 86.41582139892935 56.61468265000548 33.152791167821135 H 0.0 **** 0.06
6819 H 87.18685746065643 58.158684390805576 33.58912247776789 H 0.0 **** 0.06
6820 H 86.25899328348828 57.25192501963562 34.808212930754166 H 0.0 **** 0.06
6821 C 49.30703730108804 99.92160845485472 95.30025361174334 C 0.0 **** -0.24
6822 H 48.428100409245374 99.97127005000323 95.94385642782443 H 0.0 **** 0.06
6823 H 48.996636977353674 99.70594368924372 94.27780057149012 H 0.0 **** 0.06
6824 H 49.97026770391183 99.13119875263953 95.65319815798236 H 0.0 **** 0.06
6825 H 49.83308376746981 100.87569433497612 95.32852191723295 H 0.0 **** 0.06
6826 C 101.92904280115415 6.079472683358944 38.10579125527423 C 0.0 **** -0.24
6827 H 100.89576315995059 6.339880228290809 37.87563484278729 H 0.0 **** 0.06
6828 H 102.57074684831451 6.940795992599732 37.91599395669269 H 0.0 **** 0.06
6829 H 102.24289028538338 5.246382133727025 37.47574298301794 H 0.0 **** 0.06
6830 H 102.00595367847627 5.7914677322096395 39.15381114252301 H 0.0 **** 0.06
6831 C 12.255257532050852 91.24891776395947 99.86066165532657 C 0.0 **** -0.24
6832 H 12.854193702462762 91.92539654661003 99.25117271369447 H 0.0 **** 0.06
6833 H 11.474235637809858 91.8146189316978 100.37007889398564 H 0.0 **** 0.06
6834 H 12.893893059916333 90.76377890267604 100.5994829186784 H 0.0 **** 0.06
6835 H 11.799407899683597 90.49221898304734 99.22253870031102 H 0.0 **** 0.06
6836 C 19.89060918762341 55.198822633636325 0.008185886453153657 C 0.0 **** -0.24
6837 H 19.93102473886566 54.27496046632513 -0.5687397042214402 H 0.0 **** 0.06
6838 H 19.225673199616196 55.90698188789268 -0.48664689837167163 H 0.0 **** 0.06
6839 H 20.8908004375408 55.626871691469056 0.07826692302372962 H 0.0 **** 0.06
6840 H 19.515757284924383 54.986068205986115 1.0094598145340763 H 0.0 **** 0.06
6841 C 15.241794817042774 40.58684386362174 47.27269047847204 C 0.0 **** -0.24
6842 H 15.1637385881603 39.64870890876614 46.72329545565486 H 0.0 **** 0.06
6843 H 14.698772304586868 40.50196136676601 48.21441199591993 H 0.0 **** 0.06
6844 H 14.81498243438125 41.39368692807932 46.678053399193004 H 0.0 **** 0.06
6845 H 16.29037303694969 40.80137028911952 47.476678089818506 H 0.0 **** 0.06
6846 C 46.665172315902396 54.39328179186478 53.10782300906169 C 0.0 **** -0.24
6847 H 46.2218617495634 55.28093511525219 52.65640614086385 H 0.0 **** 0.06
6848 H 45.883557111036055 53.65986244471151 53.30868776233484 H 0.0 **** 0.06
6849 H 47.155820940891374 54.66809228124674 54.04166560595576 H 0.0 **** 0.06
6850 H 47.39785791164951 53.965710823073465 52.42398844810634 H 0.0 **** 0.06
6851 C 5.530520179542407 5.430428032111935 105.31629222491492 C 0.0 **** -0.24
6852 H 5.056302091483417 5.902576583409791 106.17698080857507 H 0.0 **** 0.06
6853 H 6.574040791097275 5.73911118289266 105.26241031210593 H 0.0 **** 0.06
6854 H 5.0135831573134055 5.733211837651739 104.40575450496216 H 0.0 **** 0.06
6855 H 5.475463456949001 4.346724619268448 105.4208892975807 H 0.0 **** 0.06
6856 C 33.66885017841213 25.60641444068608 24.297903256920307 C 0.0 **** -0.24
6857 H 33.87901471970889 24.54968751072022 24.465664897695344 H 0.0 **** 0.06
6858 H 34.59980459382845 26.17207469593336 24.332590472343686 H 0.0 **** 0.06
6859 H 32.99284082132627 25.96979601750263 25.07258970650871 H 0.0 **** 0.06
6860 H 33.20155806811874 25.732042934821152 23.32085440375789 H 0.0 **** 0.06
6861 C 100.95595606680769 74.38389748461755 64.44567107149956 C 0.0 **** -0.24
6862 H 100.02168367814083 74.87324902155652 64.72281740793605 H 0.0 **** 0.06
6863 H 101.39781152488519 73.9214717613921 65.32847743972107 H 0.0 **** 0.06
6864 H 101.645079230295 75.12181066783344 64.03690930327524 H 0.0 **** 0.06
6865 H 100.75593035236675 73.61843614393592 63.696090856701744 H 0.0 **** 0.06
6866 C 108.18599464933561 82.20437243653623 17.263160736039765 C 0.0 **** -0.24
6867 H 109.27421096603828 82.24232114639406 17.206866486290153 H 0.0 **** 0.06
6868 H 107.7847583815801 81.87342709811668 16.304071263681635 H 0.0 **** 0.06
6869 H 107.79868812103086 83.1955895923061 17.497355163865393 H 0.0 **** 0.06
6870 H 107.88720520211865 81.5036087310184 18.043026737391244 H 0.0 **** 0.06
6871 C 78.42300801549578 88.989462609926 54.78273132315072 C 0.0 **** -0.24
6872 H 78.1072080509392 89.94981289171649 55.189579640721696 H 0.0 **** 0.06
6873 H 79.42716241905377 89.0839889481204 54.367692001268054 H 0.0 **** 0.06
6874 H 77.73207446034687 88.68215398822956 53.998022414300515 H 0.0 **** 0.06
6875 H 78.4271788008963 88.24287523535727 55.57721403869644 H 0.0 **** 0.06
6876 C 84.87094720951882 80.03113521519299 5.998621300951957 C 0.0 **** -0.24
6877 H 84.22484373010201 80.90053864060812 6.116658577267295 H 0.0 **** 0.06
6878 H 84.46709534498802 79.38181872213772 5.222250516563497 H 0.0 **** 0.06
6879 H 84.92133591013152 79.48537028243089 6.940108643224267 H 0.0 **** 0.06
6880 H 85.87165877743314 80.35789144011449 5.714741706300909 H 0.0 **** 0.06
6881 C 64.79300175636844 94.50716940818204 61.8891176725142 C 0.0 **** -0.24
6882 H 65.10603769712768 94.6254343629843 60.85248674096346 H 0.0 **** 0.06
6883 H 64.7545554136708 95.48384716012055 62.371198884497176 H 0.0 **** 0.06
6884 H 65.5075012554449 93.8710720341763 62.41334143291476 H 0.0 **** 0.06
6885 H 63.80572813101297 94.04653615518072 61.92067155663841 H 0.0 **** 0.06
6886 C 65.12000435874668 39.85487370541907 0.7238736704504163 C 0.0 **** -0.24
6887 H 65.38624401868395 40.90853498032655 0.8048810901263153 H 0.0 **** 0.06
6888 H 64.28815352782325 39.74211588550514 0.028549475839753313 H 0.0 **** 0.06
6889 H 64.828152012278 39.47800971421245 1.7050687044549306 H 0.0 **** 0.06
6890 H 65.97789145004413 39.29034655621621 0.35974916236907006 H 0.0 **** 0.06
6891 C 1.3619449744040404 6.58051598521385 99.02012914843931 C 0.0 **** -0.24
6892 H 0.5946898602720303 6.886062405084605 99.73152836106937 H 0.0 **** 0.06
6893 H 1.691039694968369 7.447125019123632 98.4471734037927 H 0.0 **** 0.06
6894 H 0.9506250886999679 5.831974594573916 98.34242004018415 H 0.0 **** 0.06
6895 H 2.209177419841045 6.156043313058612 99.55893617025276 H 0.0 **** 0.06
6896 C 93.58451084674607 84.65619546608696 63.69987612910188 C 0.0 **** -0.24
6897 H 92.70935466796482 84.74471083870972 64.34379116047813 H 0.0 **** 0.06
6898 H 93.77311247183303 85.61029498737679 63.20916814782663 H 0.0 **** 0.06
6899 H 93.40348935985071 83.889404768493 62.94665430946668 H 0.0 **** 0.06
6900 H 94.45011871016965 84.37748033518005 64.3012211127155 H 0.0 **** 0.06
6901 C 73.70835738774787 21.89483966839777 34.952527723550304 C 0.0 **** -0.24
6902 H 73.90787247229433 20.985499012091832 34.386343015170894 H 0.0 **** 0.06
6903 H 74.43322116183046 21.985695181865207 35.76137730102241 H 0.0 **** 0.06
6904 H 72.7016161357737 21.848890830724667 35.369067842705704 H 0.0 **** 0.06
6905 H 73.78844007583496 22.758605214700054 34.29272571191626 H 0.0 **** 0.06
6906 C 46.77269345892719 10.869675711496967 12.137901655710834 C 0.0 **** -0.24
6907 H 47.17213932503681 10.311133897228558 11.29096721855879 H 0.0 **** 0.06
6908 H 46.72323004414906 10.217980325644533 13.01106339928603 H 0.0 **** 0.06
6909 H 45.77298096433778 11.230940270194253 11.896638910510276 H 0.0 **** 0.06
6910 H 47.4236897884182 11.716603212541031 12.352474258360118 H 0.0 **** 0.06
6911 C 90.17293420428285 85.06710308894809 30.911006984426535 C 0.0 **** -0.24
6912 H 91.23822907119438 85.23616320642445 30.75024490921504 H 0.0 **** 0.06
6913 H 89.71728635840992 84.71644113663385 29.985025831817552 H 0.0 **** 0.06
6914 H 89.70072391088016 85.9994622213954 31.21960659705519 H 0.0 **** 0.06
6915 H 90.03857012336698 84.31692821001202 31.690255215222408 H 0.0 **** 0.06
6916 C 62.380139350475304 49.37003549751927 70.33315512554339 C 0.0 **** -0.24
6917 H 61.743925575729875 49.02697617385837 71.14950200960686 H 0.0 **** 0.06
6918 H 63.24373509312497 49.89462381304884 70.7416417757535 H 0.0 **** 0.06
6919 H 61.81447932284874 50.04596819173847 69.69213439843395 H 0.0 **** 0.06
6920 H 62.717328582135224 48.513335869147056 69.74982586835779 H 0.0 **** 0.06
6921 C 96.86570610282139 21.23445820680425 22.821981650013683 C 0.0 **** -0.24
6922 H 96.87623505666117 20.815648579188576 21.815936185157405 H 0.0 **** 0.06
6923 H 97.83070447893145 21.69491478320046 23.03416729216515 H 0.0 **** 0.06
6924 H 96.6749343690283 20.43893522166698 23.543720031161968 H 0.0 **** 0.06
6925 H 96.07905007913052 21.98620078507662 22.895018065726784 H 0.0 **** 0.06
6926 C 105.15449167715349 82.22055266538092 12.935346947961534 C 0.0 **** -0.24
6927 H 104.52226943820921 81.9650991305482 12.083920800891349 H 0.0 **** 0.06
6928 H 105.07122434918949 81.44353657032877 13.695117568179626 H 0.0 **** 0.06
6929 H 104.83206459928357 83.17455044598665 13.35290759446309 H 0.0 **** 0.06
6930 H 106.19105691718295 82.29823890098265 12.60708451782611 H 0.0 **** 0.06
6931 C 56.42313319650275 11.448829538322514 42.09904316913724 C 0.0 **** -0.24
6932 H 56.170720900093784 10.594829623207758 42.72863359617057 H 0.0 **** 0.06
6933 H 57.46500270235294 11.373406452933239 41.78566126468703 H 0.0 **** 0.06
6934 H 56.277777280938736 12.370627433492274 42.661969579019164 H 0.0 **** 0.06
6935 H 55.778504948699386 11.454108237387373 41.220374063310764 H 0.0 **** 0.06
6936 C 106.12968553761318 36.16779054090108 101.37680170908665 C 0.0 **** -0.24
6937 H 106.58350410353904 35.71199196044512 102.25676263052293 H 0.0 **** 0.06
6938 H 105.57677016514899 37.05893175315498 101.67555887412243 H 0.0 **** 0.06
6939 H 105.448200798237 35.45633744608676 100.91077822204059 H 0.0 **** 0.06
6940 H 106.90964937448184 36.4437342578843 100.66765552837849 H 0.0 **** 0.06
6941 C 45.702605251561465 81.41638955530311 67.88510555018723 C 0.0 **** -0.24
6942 H 46.593534055954365 81.59909568853877 67.28516459784157 H 0.0 **** 0.06
6943 H 45.84214401535414 80.51034539745598 68.47625854839299 H 0.0 **** 0.06
6944 H 44.84120744432161 81.2920278033132 67.22810563685982 H 0.0 **** 0.06
6945 H 45.53261328120408 82.26208277363602 68.55124484538055 H 0.0 **** 0.06
6946 C 59.51851406102273 15.86800525821576 38.924187486698685 C 0.0 **** -0.24
6947 H 60.278523088939494 16.129670918112595 39.66035745321335 H 0.0 **** 0.06
6948 H 58.82949948680894 15.142517780499304 39.355330899979634 H 0.0 **** 0.06
6949 H 59.99783211972684 15.43675216178309 38.045423683828375 H 0.0 **** 0.06
6950 H 58.969536726069265 16.76512722878499 38.63547311025138 H 0.0 **** 0.06
6951 C 96.81459336629246 8.29750634777319 56.32541546799723 C 0.0 **** -0.24
6952 H 95.87435709694842 8.540861087427837 56.82170687894535 H 0.0 **** 0.06
6953 H 97.27317899947218 9.211943915058875 55.94995976586088 H 0.0 **** 0.06
6954 H 96.62066923168675 7.619025979262863 55.49441444343097 H 0.0 **** 0.06
6955 H 97.48687648578311 7.81827290383673 57.037358300030235 H 0.0 **** 0.06
6956 C 56.11370778637496 22.402446539141692 14.488528108408644 C 0.0 **** -0.24
6957 H 55.300610436482586 23.074605802171902 14.764373233985765 H 0.0 **** 0.06
6958 H 56.291730571604894 22.470069445109544 13.41462077294021 H 0.0 **** 0.06
6959 H 55.84268516439949 21.378996440022235 14.748036303891155 H 0.0 **** 0.06
6960 H 57.01769558607833 22.68645429470172 15.02588408162029 H 0.0 **** 0.06
6961 C 43.01664359407951 28.506664461054697 77.43668361495071 C 0.0 **** -0.24
6962 H 43.267929530601634 29.37736843085102 76.83155651587771 H 0.0 **** 0.06
6963 H 42.56491818838003 28.833982088459493 78.37380594197114 H 0.0 **** 0.06
6964 H 43.92147031698972 27.936922666805856 77.64798374723901 H 0.0 **** 0.06
6965 H 42.31092096824666 27.878420957701223 76.89292396732012 H 0.0 **** 0.06
6966 C 44.20639526125228 36.70473811110418 97.01578296412242 C 0.0 **** -0.24
6967 H 43.445574885306776 36.375681007875755 97.72326697083963 H 0.0 **** 0.06
6968 H 45.00641081783984 35.965251348437306 96.97222457677947 H 0.0 **** 0.06
6969 H 44.61295447380848 37.66302845822855 97.34009163581129 H 0.0 **** 0.06
6970 H 43.76014095163274 36.81627695738149 96.02786190758144 H 0.0 **** 0.06
6971 C 58.38364275953006 71.35958505259862 52.55240251577711 C 0.0 **** -0.24
6972 H 58.92720810006142 70.72137716748102 51.855286090023085 H 0.0 **** 0.06
6973 H 58.747445888193056 71.18475819477669 53.564846444903125 H 0.0 **** 0.06
6974 H 57.31985139676112 71.12695868119118 52.502645324229135 H 0.0 **** 0.06
6975 H 58.540578998574176 72.40524402120008 52.28551441378886 H 0.0 **** 0.06
6976 C 104.63669607036304 105.83689941618093 39.012078970905414 C 0.0 **** -0.24
6977 H 104.85232986953177 105.11669308109691 39.801305023075656 H 0.0 **** 0.06
6978 H 103.5880391615917 105.75704564336121 38.72494843304607 H 0.0 **** 0.06
6979 H 105.26748846333193 105.62899169137242 38.14821083101994 H 0.0 **** 0.06
6980 H 104.83786103990818 106.84454106278669 39.37579016128424 H 0.0 **** 0.06
6981 C 47.87796578880409 76.19573389501207 42.59219289709944 C 0.0 **** -0.24
6982 H 47.77721839593452 75.2460048485834 42.06646617587603 H 0.0 **** 0.06
6983 H 46.965686551450524 76.39797934329715 43.15427766320738 H 0.0 **** 0.06
6984 H 48.04339018564365 76.99482732958083 41.86922654965622 H 0.0 **** 0.06
6985 H 48.72372613090459 76.1449116274562 43.27780750981151 H 0.0 **** 0.06
6986 C 58.82534190178251 73.48465037423705 46.718974747204584 C 0.0 **** -0.24
6987 H 59.80386880668546 73.8943489890724 46.46954343598503 H 0.0 **** 0.06
6988 H 58.555415645143 72.72096290936784 45.98959066855542 H 0.0 **** 0.06
6989 H 58.0824232472315 74.2829859638959 46.70173830936528 H 0.0 **** 0.06
6990 H 58.85943727057603 73.04090539901449 47.71425952752401 H 0.0 **** 0.06
6991 C 56.563068429423225 67.53704225424201 88.95055053405085 C 0.0 **** -0.24
6992 H 56.61012244013628 68.36841603858394 89.65461549109014 H 0.0 **** 0.06
6993 H 55.52064454041482 67.26982792981514 88.77391571111079 H 0.0 **** 0.06
6994 H 57.09293007843465 66.68036264548462 89.36554388731581 H 0.0 **** 0.06
6995 H 57.02763721733612 67.83157721619 88.00987586755541 H 0.0 **** 0.06
6996 C 37.73841258939942 69.6842802558653 42.26628013627132 C 0.0 **** -0.24
6997 H 38.18091357368402 70.40267762589991 42.95690376650657 H 0.0 **** 0.06
6998 H 38.52883053656882 69.10094106910321 41.79407073191334 H 0.0 **** 0.06
6999 H 37.172583210555615 70.21688891113553 41.50270044981508 H 0.0 **** 0.06
7000 H 37.07251488783393 69.01826649841172 42.81458367072631 H 0.0 **** 0.06
7001 C 10.152757009058575 29.203868564961056 20.54641255084121 C 0.0 **** -0.24
7002 H 9.134716190486017 29.58213138054745 20.63689446233326 H 0.0 **** 0.06
7003 H 10.624898249908597 29.63867613170413 19.664257238834267 H 0.0 **** 0.06
7004 H 10.13074567806882 28.119037776857084 20.449034614331936 H 0.0 **** 0.06
7005 H 10.72155266211945 29.47734916002497 21.434955582413693 H 0.0 **** 0.06
7006 C 107.25100955109585 82.45864579339899 51.777873087274315 C 0.0 **** -0.24
7007 H 107.6829970133366 81.47981533556177 51.57543664857212 H 0.0 **** 0.06
7008 H 106.77849750420161 82.84273795798852 50.87310156774663 H 0.0 **** 0.06
7009 H 108.03645388538996 83.14462781459386 52.09655910020848 H 0.0 **** 0.06
7010 H 106.50457312791457 82.3703378631902 52.56815044894802 H 0.0 **** 0.06
7011 C 92.49563504785506 4.844764033380301 2.215850716491957 C 0.0 **** -0.24
7012 H 92.5358995360807 5.5339534144547855 3.05985407730833 H 0.0 **** 0.06
7013 H 93.25192570464961 5.126312895827326 1.4822959431214144 H 0.0 **** 0.06
7014 H 91.50866515700356 4.889998063600473 1.756580501940988 H 0.0 **** 0.06
7015 H 92.68793041310504 3.830921983391761 2.5660601162105365 H 0.0 **** 0.06
7016 C 26.40250233440679 91.68173489611286 11.319064695850415 C 0.0 **** -0.24
7017 H 25.756768431457942 90.88399955747778 11.686031881390193 H 0.0 **** 0.06
7018 H 26.10754727792019 92.62640484775851 11.77585902416439 H 0.0 **** 0.06
7019 H 26.307590448607158 91.75545475722181 10.235206294896841 H 0.0 **** 0.06
7020 H 27.43734913095517 91.45897859172635 11.57815459864878 H 0.0 **** 0.06
7021 C 19.650716888372045 84.88995699610115 70.26811562515354 C 0.0 **** -0.24
7022 H 18.914156838491635 84.24187358706178 69.79333457707281 H 0.0 **** 0.06
7023 H 19.217981599187908 85.87849291822744 70.42514050820958 H 0.0 **** 0.06
7024 H 20.527610981111422 84.97463318394256 69.62584108666425 H 0.0 **** 0.06
7025 H 19.943526266474038 84.46479325284815 71.22905860605667 H 0.0 **** 0.06
7026 C 12.187123845684198 55.456023929701246 52.90748030821442 C 0.0 **** -0.24
7027 H 12.213567578980388 56.35579363905674 52.29287469598714 H 0.0 **** 0.06
7028 H 12.608215536860655 54.621024481517566 52.34643696549773 H 0.0 **** 0.06
7029 H 11.155678082656266 55.22981177845793 53.17688806724291 H 0.0 **** 0.06
7030 H 12.77275175503658 55.618546413079855 53.81278208069267 H 0.0 **** 0.06
7031 C 28.38170548569454 73.06805514768857 25.815814162293705 C 0.0 **** -0.24
7032 H 29.163121441386266 73.82605037099475 25.860503786484728 H 0.0 **** 0.06
7033 H 27.541671299831663 73.37503744399757 26.43965897311744 H 0.0 **** 0.06
7034 H 28.77624268024455 72.11881191069544 26.177477698957144 H 0.0 **** 0.06
7035 H 28.04629125000386 72.95318414834634 24.78562255275754 H 0.0 **** 0.06
7036 C 16.59291271251702 3.7639717530126937 19.45137009329494 C 0.0 **** -0.24
7037 H 15.813294971520687 3.0128414369338596 19.321553581635555 H 0.0 **** 0.06
7038 H 16.32692594410128 4.423589029309845 20.277598252285117 H 0.0 **** 0.06
7039 H 16.689802891746524 4.348188708415037 18.536180105471544 H 0.0 **** 0.06
7040 H 17.53940734565747 3.271261899416933 19.66987795732888 H 0.0 **** 0.06
7041 C 30.25694798399951 28.996598527956138 57.580638212453835 C 0.0 **** -0.24
7042 H 29.301350722230254 28.573816126994245 57.89150924734065 H 0.0 **** 0.06
7043 H 30.801497447723932 28.2635080277974 56.98473712116228 H 0.0 **** 0.06
7044 H 30.842926507549805 29.256197414965072 58.462414522248395 H 0.0 **** 0.06
7045 H 30.082282545828832 29.89156476216894 56.98436039631616 H 0.0 **** 0.06
7046 C 21.693749293090264 11.191967385070086 52.892978285519206 C 0.0 **** -0.24
7047 H 20.991100812251318 12.0118769086219 52.742677349371434 H 0.0 **** 0.06
7048 H 21.140939434763908 10.264836292193934 53.04620389552278 H 0.0 **** 0.06
7049 H 22.310201261057955 11.397272884704876 53.76748067410662 H 0.0 **** 0.06
7050 H 22.331074549129283 11.094269392637614 52.013811912564165 H 0.0 **** 0.06
7051 C 106.9427411688316 25.859930979472736 102.42181581600637 C 0.0 **** -0.24
7052 H 106.43617621148911 25.127367254560994 101.79298338580658 H 0.0 **** 0.06
7053 H 107.3182864584768 25.3687151612653 103.31999211581602 H 0.0 **** 0.06
7054 H 106.23924899839191 26.643508705336373 102.70340342435021 H 0.0 **** 0.06
7055 H 107.77453840285357 26.29835114346801 101.87156048978893 H 0.0 **** 0.06
7056 C 31.114399268605723 51.78947114813022 78.72178022372961 C 0.0 **** -0.24
7057 H 31.574721819829165 51.21688379821799 77.91683071053717 H 0.0 **** 0.06
7058 H 31.271010651936706 52.85373418601054 78.54429796292854 H 0.0 **** 0.06
7059 H 31.56809640736219 51.50814522678161 79.67261908705888 H 0.0 **** 0.06
7060 H 30.045761752507275 51.579068163775844 78.75195074387375 H 0.0 **** 0.06
7061 C 101.13834708631981 94.45317175224864 29.75202745734032 C 0.0 **** -0.24
7062 H 101.30740361562306 93.47968572410372 30.214270679551362 H 0.0 **** 0.06
7063 H 101.66769611397848 95.21957875336614 30.31784435428608 H 0.0 **** 0.06
7064 H 100.07083994124673 94.67312848375997 29.751405044469948 H 0.0 **** 0.06
7065 H 101.50774097964268 94.43720841116965 28.726685961472185 H 0.0 **** 0.06
7066 C 30.75979011004788 72.85446537180407 66.10034519597264 C 0.0 **** -0.24
7067 H 30.868266384997327 72.22345330997334 65.21890973154235 H 0.0 **** 0.06
7068 H 30.404372422805586 72.2530234968589 66.93625472301443 H 0.0 **** 0.06
7069 H 30.041922817373838 73.64790130687538 65.89132401705193 H 0.0 **** 0.06
7070 H 31.72492644662892 73.29487706965587 66.35290470923974 H 0.0 **** 0.06
7071 C 46.04621947009514 14.116558961070083 70.18425411550646 C 0.0 **** -0.24
7072 H 47.048669441596246 14.453432869594195 70.45133269553475 H 0.0 **** 0.06
7073 H 46.079734148305846 13.065245425450456 69.90093555332675 H 0.0 **** 0.06
7074 H 45.67560513695429 14.708517964680297 69.3467521926267 H 0.0 **** 0.06
7075 H 45.381805564834536 14.242178815188623 71.03980407433664 H 0.0 **** 0.06
7076 C 18.026604344055954 64.39943382385675 58.9258481929823 C 0.0 **** -0.24
7077 H 17.161552716750975 64.91292766286723 59.346073901832085 H 0.0 **** 0.06
7078 H 18.073442594780204 64.58567114699932 57.85235168201615 H 0.0 **** 0.06
7079 H 17.93502095819781 63.328324861903454 59.10495408476629 H 0.0 **** 0.06
7080 H 18.935141363311175 64.77040067413729 59.39951886987194 H 0.0 **** 0.06
7081 C 54.53416904543729 98.58517651910063 104.07353819920502 C 0.0 **** -0.24
7082 H 54.38602843370819 99.60096629878515 104.44012154405266 H 0.0 **** 0.06
7083 H 54.275918654546274 97.87462765329394 104.85983775682752 H 0.0 **** 0.06
7084 H 55.57726370877415 98.4489871028668 103.78959139815873 H 0.0 **** 0.06
7085 H 53.896328779041426 98.41441759655072 103.20654971789111 H 0.0 **** 0.06
7086 C 70.80166676737207 39.52361990082906 19.393226807203348 C 0.0 **** -0.24
7087 H 70.55434380461958 39.439058442526516 20.450794539842548 H 0.0 **** 0.06
7088 H 71.38279488021789 40.43070862636414 19.22656837408357 H 0.0 **** 0.06
7089 H 69.8830268712774 39.568103274813126 18.807552944730617 H 0.0 **** 0.06
7090 H 71.38616655816787 38.656139501442425 19.085610733781834 H 0.0 **** 0.06
7091 C 77.49598224924722 75.05173660734533 66.04326597215008 C 0.0 **** -0.24
7092 H 77.80903383674473 74.04982275593648 65.74912448645694 H 0.0 **** 0.06
7093 H 76.43784018300542 75.18382945925237 65.81367547846209 H 0.0 **** 0.06
7094 H 78.08159752613781 75.79014431794724 65.49581674775558 H 0.0 **** 0.06
7095 H 77.65480832852751 75.18228779767372 67.11309234214424 H 0.0 **** 0.06
7096 C 63.18038632184519 23.706652869286643 102.75496837708607 C 0.0 **** -0.24
7097 H 62.42939203884447 23.392298338613358 102.03095620530094 H 0.0 **** 0.06
7098 H 62.842621074400626 24.61262208522396 103.25780359981877 H 0.0 **** 0.06
7099 H 64.12059529391053 23.90574024487813 102.23984585522408 H 0.0 **** 0.06
7100 H 63.329108129729775 22.91512087798435 103.49013559884325 H 0.0 **** 0.06
7101 C 102.66658651229358 99.55466366300945 48.850451736159336 C 0.0 **** -0.24
7102 H 103.51286092726338 98.87079092943746 48.7753076621661 H 0.0 **** 0.06
7103 H 101.84203272238904 99.05665941481432 49.36150136931179 H 0.0 **** 0.06
7104 H 102.3502741748756 99.851000959164 47.85063297962136 H 0.0 **** 0.06
7105 H 102.96299176649978 100.43858642537398 49.41467625721872 H 0.0 **** 0.06
7106 C 59.98773917779961 50.64146465877909 33.45378030298775 C 0.0 **** -0.24
7107 H 59.18800741758409 49.89939299873696 33.466693111330144 H 0.0 **** 0.06
7108 H 60.77390916083482 50.33935132646975 34.14555566028395 H 0.0 **** 0.06
7109 H 59.588639569117916 51.609478845033266 33.75601345769377 H 0.0 **** 0.06
7110 H 60.39825729434067 50.71556467809815 32.447203489037776 H 0.0 **** 0.06
7111 C 17.972903328026348 63.342875582626846 86.15645650804015 C 0.0 **** -0.24
7112 H 17.73061550070466 64.0419608352878 85.35620138111773 H 0.0 **** 0.06
7113 H 18.6832898478782 63.807457307675065 86.84080050899422 H 0.0 **** 0.06
7114 H 18.41322741906245 62.4417142861127 85.7301797723913 H 0.0 **** 0.06
7115 H 17.063478841415304 63.082059472702326 86.69757563785612 H 0.0 **** 0.06
7116 C 98.9455113081481 79.02423997514063 94.50764474221774 C 0.0 **** -0.24
7117 H 98.33354142935421 79.73646776155135 95.06200956817821 H 0.0 **** 0.06
7118 H 99.99018534258896 79.33126808435338 94.55172124408716 H 0.0 **** 0.06
7119 H 98.61833297128923 78.9978224062121 93.4681803043539 H 0.0 **** 0.06
7120 H 98.83794822169737 78.03343060997099 94.94781152199067 H 0.0 **** 0.06
7121 C 9.522356291201305 29.98452498708852 1.9626175295991857 C 0.0 **** -0.24
7122 H 8.679582582490127 30.61988869273847 2.234481997680632 H 0.0 **** 0.06
7123 H 10.043463345338537 30.418016941335196 1.1090954031182605 H 0.0 **** 0.06
7124 H 9.158136520528359 28.990795596763206 1.7009178019341107 H 0.0 **** 0.06
7125 H 10.207107974021113 29.908578061333458 2.806994244703276 H 0.0 **** 0.06
7126 C 51.683265043202766 70.53675569152506 75.92614054379165 C 0.0 **** -0.24
7127 H 52.3351674108836 71.0349327632793 75.20751140093192 H 0.0 **** 0.06
7128 H 52.110664911778684 69.56957209920456 76.19351890661217 H 0.0 **** 0.06
7129 H 50.699049575103686 70.3898145230461 75.48150016948128 H 0.0 **** 0.06
7130 H 51.59094410582816 71.15310550089845 76.8195438932914 H 0.0 **** 0.06
7131 C 102.3460922302936 33.844456998742146 89.227708613535 C 0.0 **** -0.24
7132 H 101.81164452526554 34.5476139492838 89.8652584069677 H 0.0 **** 0.06
7133 H 101.66406800600134 33.05945952927692 88.89930208261568 H 0.0 **** 0.06
7134 H 103.1698811054573 33.400886432546315 89.78767463663716 H 0.0 **** 0.06
7135 H 102.7405673018929 34.371081593163694 88.35803690780023 H 0.0 **** 0.06
7136 C 71.10433365649503 18.934448451784874 52.073576899871 C 0.0 **** -0.24
7137 H 70.766720100986 19.961788415571903 51.93875656117919 H 0.0 **** 0.06
7138 H 71.5944321235278 18.590760976041736 51.16254106910668 H 0.0 **** 0.06
7139 H 70.2464296043135 18.295719217474243 52.28825936992004 H 0.0 **** 0.06
7140 H 71.80760653146002 18.888345299142202 52.90470961859086 H 0.0 **** 0.06
7141 C 26.81578039517882 15.544883333532766 103.18232827405396 C 0.0 **** -0.24
7142 H 27.276685280116567 14.630487531309285 102.80598139859228 H 0.0 **** 0.06
7143 H 25.823993019852992 15.657082261552546 102.74454515966514 H 0.0 **** 0.06
7144 H 27.433187787801216 16.400647505137158 102.91112243590072 H 0.0 **** 0.06
7145 H 26.73032563135979 15.487211328849043 104.2675799965964 H 0.0 **** 0.06
7146 C 84.01964097166388 108.58812018686541 90.66928131527914 C 0.0 **** -0.24
7147 H 84.279079724533 107.9166724741645 91.48734814038772 H 0.0 **** 0.06
7148 H 84.08292414228073 108.05008964070328 89.72404791667554 H 0.0 **** 0.06
7149 H 84.71325481465404 109.4289119631336 90.65679559212174 H 0.0 **** 0.06
7150 H 83.00445772661834 108.95760404013879 90.81067606482492 H 0.0 **** 0.06
7151 C 69.19597590227167 7.565676265637876 54.87990408745162 C 0.0 **** -0.24
7152 H 69.38104118001607 6.598622315493458 55.34847362154002 H 0.0 **** 0.06
7153 H 68.26331774878244 7.523302594457675 54.31773233139285 H 0.0 **** 0.06
7154 H 70.01720446173204 7.804750825111682 54.20428076905088 H 0.0 **** 0.06
7155 H 69.12227332059007 8.333581947132814 55.649208058264264 H 0.0 **** 0.06
7156 C 20.41490211923812 36.54233889919374 4.243517684646719 C 0.0 **** -0.24
7157 H 20.391554875311158 35.613926293072524 4.815152060555391 H 0.0 **** 0.06
7158 H 19.91187284146406 36.393222329667964 3.287842697099194 H 0.0 **** 0.06
7159 H 21.449184521088057 36.835185824445006 4.068211203756022 H 0.0 **** 0.06
7160 H 19.90468687414642 37.325591463264885 4.804484445673523 H 0.0 **** 0.06
7161 C 51.682763248155936 36.72190401557111 106.2002802903614 C 0.0 **** -0.24
7162 H 52.01828957645793 35.6904042580324 106.30423778452578 H 0.0 **** 0.06
7163 H 51.717091503318784 37.21364212399743 107.17337183569879 H 0.0 **** 0.06
7164 H 50.66069413132155 36.735304297822495 105.82167228928651 H 0.0 **** 0.06
7165 H 52.33546024221232 37.24798571259498 105.50375998477725 H 0.0 **** 0.06
7166 C 25.423638397468494 97.94884527282534 2.8666369422780535 C 0.0 **** -0.24
7167 H 24.616941225217744 98.42526800115422 2.309944121307505 H 0.0 **** 0.06
7168 H 25.88609312648785 98.67955179169871 3.531559915417377 H 0.0 **** 0.06
7169 H 26.170539334220933 97.56761446071334 2.1698680058582696 H 0.0 **** 0.06
7170 H 25.02136621417401 97.1246009629092 3.454836930194796 H 0.0 **** 0.06
7171 C 25.49863791178129 107.60820254565527 80.87106079804568 C 0.0 **** -0.24
7172 H 25.1473516619919 108.62140697359473 80.67786250089824 H 0.0 **** 0.06
7173 H 26.281102505364487 107.3528674141441 80.15583633128705 H 0.0 **** 0.06
7174 H 24.668873774457424 106.91021373770883 80.76619949020971 H 0.0 **** 0.06
7175 H 25.89824502274644 107.5488217669839 81.88350385855392 H 0.0 **** 0.06
7176 C 108.42022148845122 81.53888720438731 37.703094203991554 C 0.0 **** -0.24
7177 H 107.89255255562753 81.5598098726816 38.65571559587488 H 0.0 **** 0.06
7178 H 108.35837080044425 82.52033657765092 37.23203526269896 H 0.0 **** 0.06
7179 H 107.96442062135569 80.79424298585249 37.05104329580547 H 0.0 **** 0.06
7180 H 109.4667973250578 81.28211983257253 37.872000928075806 H 0.0 **** 0.06
7181 C 25.26519034846413 108.53521080379207 86.01077737192878 C 0.0 **** -0.24
7182 H 26.21887000870788 108.29042130845404 85.54301452795653 H 0.0 **** 0.06
7183 H 24.574926340656702 108.90769441687524 85.2537308528781 H 0.0 **** 0.06
7184 H 25.418689208249532 109.30011207634297 86.77101215923341 H 0.0 **** 0.06
7185 H 24.848335364512565 107.63991000800014 86.4734341931011 H 0.0 **** 0.06
7186 C 30.722515987589787 58.0468528195654 18.60797091044966 C 0.0 **** -0.24
7187 H 30.481776110136764 58.98389198491296 19.109249013384716 H 0.0 **** 0.06
7188 H 31.72940139870525 58.104607919474404 18.194851113363825 H 0.0 **** 0.06
7189 H 30.008663851883824 57.871032569106944 17.803966449851217 H 0.0 **** 0.06
7190 H 30.670405989382402 57.22794718841644 19.325217703375365 H 0.0 **** 0.06
7191 C 68.02987814829127 15.770946308961186 50.59592336107037 C 0.0 **** -0.24
7192 H 68.82420449384553 15.148491340060616 50.184525367027746 H 0.0 **** 0.06
7193 H 67.80235670421713 15.445560622606706 51.61109182797774 H 0.0 **** 0.06
7194 H 67.13776946573367 15.678306445817782 49.97558081442052 H 0.0 **** 0.06
7195 H 68.3551250780645 16.811933687295607 50.61117635941135 H 0.0 **** 0.06
7196 C 98.44304086052142 45.17808810079964 53.55572005759886 C 0.0 **** -0.24
7197 H 97.90336093425464 44.73132206633454 54.390663495884425 H 0.0 **** 0.06
7198 H 99.49934328102343 44.91431536673545 53.62322630905981 H 0.0 **** 0.06
7199 H 98.33630928371701 46.26259317822588 53.59311006185878 H 0.0 **** 0.06
7200 H 98.03465083289623 44.80488137718595 52.61696228695993 H 0.0 **** 0.06
7201 C 29.79979285524046 63.236384911258895 91.06584306577838 C 0.0 **** -0.24
7202 H 28.85139337931181 63.184994788128535 90.5306633078348 H 0.0 **** 0.06
7203 H 29.71326280266917 62.700865256128026 92.01120601524548 H 0.0 **** 0.06
7204 H 30.05081732869246 64.27963365456846 91.26098584426029 H 0.0 **** 0.06
7205 H 30.583798188667267 62.781677258078474 90.45936428875444 H 0.0 **** 0.06
7206 C 104.90952754185155 1.3347377235152749 94.23071369445074 C 0.0 **** -0.24
7207 H 104.5591353989744 2.3648615614934556 94.16433523760311 H 0.0 **** 0.06
7208 H 105.64553875816695 1.1510268183592416 93.44777967856689 H 0.0 **** 0.06
7209 H 104.06679382452928 0.6559076871217258 94.10414958613049 H 0.0 **** 0.06
7210 H 105.3668391587368 1.1687973822216122 95.20607708654501 H 0.0 **** 0.06
7211 C 18.412776441620053 56.5761713360929 40.51584929798253 C 0.0 **** -0.24
7212 H 18.291028921114673 55.52380447559568 40.770649909984456 H 0.0 **** 0.06
7213 H 18.053207700093765 56.747709967436776 39.500935649329165 H 0.0 **** 0.06
7214 H 19.467059109525792 56.84619724890399 40.57914971080493 H 0.0 **** 0.06
7215 H 17.838441472482515 57.18732614806373 41.21260825134698 H 0.0 **** 0.06
7216 C 20.084685208693827 107.70810116590656 59.47979892305426 C 0.0 **** -0.24
7217 H 20.24508824010053 108.6298439962402 60.03886768035204 H 0.0 **** 0.06
7218 H 20.770618342639267 106.94045790093034 59.83958701704978 H 0.0 **** 0.06
7219 H 20.265347463096276 107.88930472522401 58.42042209400222 H 0.0 **** 0.06
7220 H 19.05735182323201 107.37205846442563 59.620902744687214 H 0.0 **** 0.06
7221 C 8.966398343668601 76.73657512564819 46.462956162938504 C 0.0 **** -0.24
7222 H 8.711943931181338 75.80845794786472 45.94940829987025 H 0.0 **** 0.06
7223 H 9.295061654842414 76.51159823823954 47.477540652795604 H 0.0 **** 0.06
7224 H 8.090261291044953 77.38308449690135 46.49964817132821 H 0.0 **** 0.06
7225 H 9.768268752920392 77.24090884232848 45.92426312939294 H 0.0 **** 0.06
7226 C 59.39462199334301 19.156037006630044 13.454396534924797 C 0.0 **** -0.24
7227 H 59.07846910413302 19.25171568093606 12.414873622649452 H 0.0 **** 0.06
7228 H 58.73070995616912 19.741702993020624 14.091362854554163 H 0.0 **** 0.06
7229 H 60.4159508416696 19.52294699009792 13.55770832572405 H 0.0 **** 0.06
7230 H 59.352258900348204 18.108424547764244 13.750746528228106 H 0.0 **** 0.06
7231 C 5.37088661239045 105.4149984970125 62.19588888966935 C 0.0 **** -0.24
7232 H 5.4513817699906895 105.56217245328281 63.27264568296127 H 0.0 **** 0.06
7233 H 6.3115244001628525 105.69612278805278 61.72000375935389 H 0.0 **** 0.06
7234 H 4.566277483110412 106.03677799205695 61.80408250510466 H 0.0 **** 0.06
7235 H 5.155708694811949 104.3673945313476 61.987087016738755 H 0.0 **** 0.06
7236 C 28.274879455129707 2.4725337114968946 37.18846516254496 C 0.0 **** -0.24
7237 H 27.429724618036175 2.2238849438983674 37.82954698674058 H 0.0 **** 0.06
7238 H 29.135295353674877 2.730867826291089 37.805783420455185 H 0.0 **** 0.06
7239 H 28.013730731430314 3.321857863788434 36.55616005100967 H 0.0 **** 0.06
7240 H 28.520976414264055 1.6152435182203408 36.56235203692236 H 0.0 **** 0.06
7241 C 90.04358493785817 91.23542475739822 44.31932320826917 C 0.0 **** -0.24
7242 H 89.49913123462973 90.65069680839287 43.576666260621835 H 0.0 **** 0.06
7243 H 90.58949462479285 90.56385030493067 44.98085261798013 H 0.0 **** 0.06
7244 H 89.33819912843254 91.8276783746809 44.90185763220336 H 0.0 **** 0.06
7245 H 90.74509084503326 91.89958278938967 43.814295048297765 H 0.0 **** 0.06
7246 C 17.377489785991834 72.12357730383678 10.23862456095118 C 0.0 **** -0.24
7247 H 17.688349556186985 71.27469626261018 10.84736262383889 H 0.0 **** 0.06
7248 H 16.607821231608536 72.68631372817441 10.767396651895666 H 0.0 **** 0.06
7249 H 16.978031188564827 71.76410203094684 9.290368153445158 H 0.0 **** 0.06
7250 H 18.23482042670701 72.76966883267664 10.050319588663129 H 0.0 **** 0.06
7251 C 32.69876194518298 87.16893092669714 94.66385798353504 C 0.0 **** -0.24
7252 H 32.76376141201473 86.2539626902787 95.25380469697949 H 0.0 **** 0.06
7253 H 32.257786729539646 86.94384532910013 93.69277601105172 H 0.0 **** 0.06
7254 H 33.69773809726581 87.58231465561748 94.52300191454913 H 0.0 **** 0.06
7255 H 32.07506414444458 87.89404691603401 95.18760961217667 H 0.0 **** 0.06
7256 C 107.87010419899548 44.85805983324639 73.41786459400068 C 0.0 **** -0.24
7257 H 108.78614043724849 44.82769902897331 72.8279885986274 H 0.0 **** 0.06
7258 H 107.0146478304926 44.66525178020629 72.77024098866622 H 0.0 **** 0.06
7259 H 107.76453116860341 45.8421267992361 73.87500617525862 H 0.0 **** 0.06
7260 H 107.91431663646199 44.09815998725486 74.19704189689912 H 0.0 **** 0.06
7261 C 83.53007411877854 34.55436022092471 103.84202098048837 C 0.0 **** -0.24
7262 H 84.32150664739197 33.844822166754284 104.08360775414147 H 0.0 **** 0.06
7263 H 82.62553447392781 34.01093280212186 103.57032170511434 H 0.0 **** 0.06
7264 H 83.84409076498366 35.17915454541364 103.00648976562968 H 0.0 **** 0.06
7265 H 83.32982984375082 35.1832727302768 104.71098259014695 H 0.0 **** 0.06
7266 C 51.31796382268095 10.784123057543503 76.94037093987322 C 0.0 **** -0.24
7267 H 50.682744471555964 11.58238939817975 76.55511499788821 H 0.0 **** 0.06
7268 H 50.82064593860366 10.29665589680367 77.77908338573663 H 0.0 **** 0.06
7269 H 52.26688017222983 11.204986652996936 77.27539712325961 H 0.0 **** 0.06
7270 H 51.50214528724575 10.05478695991988 76.15241038221046 H 0.0 **** 0.06
7271 C 98.83017992857111 82.77558856239153 29.307871224537735 C 0.0 **** -0.24
7272 H 99.56524806185479 81.97067394266196 29.287618237364796 H 0.0 **** 0.06
7273 H 99.02639750329797 83.42560265271345 30.160144170092167 H 0.0 **** 0.06
7274 H 97.82953570738675 82.35089855003775 29.397098317574574 H 0.0 **** 0.06
7275 H 98.89882218114792 83.35362473011924 28.386357638395737 H 0.0 **** 0.06
7276 C 29.706203808366176 54.01122205137621 84.0807095092041 C 0.0 **** -0.24
7277 H 30.034522724503233 53.01266284503597 83.7937338608188 H 0.0 **** 0.06
7278 H 28.93247057322111 54.351328611821934 83.39273767196696 H 0.0 **** 0.06
7279 H 30.55291880402413 54.69709971141329 84.0440155782768 H 0.0 **** 0.06
7280 H 29.305467405107137 53.984114570507 85.09449125654413 H 0.0 **** 0.06
7281 C 67.37657265173392 89.05562712998676 38.8762198303164 C 0.0 **** -0.24
7282 H 68.06988855693422 89.88803714043115 39.00092566451971 H 0.0 **** 0.06
7283 H 67.43252938678496 88.40293906217482 39.74695512542388 H 0.0 **** 0.06
7284 H 67.64368497512457 88.4927660757837 37.981565524596945 H 0.0 **** 0.06
7285 H 66.36210033555908 89.44073855639452 38.773574970434325 H 0.0 **** 0.06
7286 C 38.18915887672096 70.04656596680134 72.54579523400167 C 0.0 **** -0.24
7287 H 37.19095281157079 69.72205217612021 72.83849521619052 H 0.0 **** 0.06
7288 H 38.77906813920354 70.25778303259038 73.43787667196773 H 0.0 **** 0.06
7289 H 38.11480282174396 70.94875006493388 71.93802230710102 H 0.0 **** 0.06
7290 H 38.672656279192346 69.2586710878701 71.96764575533109 H 0.0 **** 0.06
7291 C 24.233964763125982 96.11601943298916 95.83984758401209 C 0.0 **** -0.24
7292 H 24.091072891543376 95.67355475863764 94.85371431941883 H 0.0 **** 0.06
7293 H 24.987767352291115 95.54878979787964 96.38609667875409 H 0.0 **** 0.06
7294 H 23.29235702332676 96.09294892291044 96.38741714499906 H 0.0 **** 0.06
7295 H 24.56553290655623 97.14839430241273 95.72914729947809 H 0.0 **** 0.06
7296 C 35.73476125199983 68.02861026062921 54.96189405586095 C 0.0 **** -0.24
7297 H 36.3421174865459 68.13665002711122 54.062474939859904 H 0.0 **** 0.06
7298 H 35.65352778308295 68.99291547113968 55.46284656345213 H 0.0 **** 0.06
7299 H 36.20356793344513 67.30813258405523 55.631868725574606 H 0.0 **** 0.06
7300 H 34.740056572527635 67.67578570950803 54.68691701852416 H 0.0 **** 0.06
7301 C 26.164314643530943 105.41599515144384 12.069785415276215 C 0.0 **** -0.24
7302 H 26.092782509243165 104.33089194687392 12.143318034597996 H 0.0 **** 0.06
7303 H 27.21230559439445 105.7141808119153 12.103343621351272 H 0.0 **** 0.06
7304 H 25.629513550896988 105.87249479510746 12.903036734012147 H 0.0 **** 0.06
7305 H 25.72174457293339 105.74637084836843 11.129850569547813 H 0.0 **** 0.06
7306 C 52.54220023369039 68.87307713233577 63.402930064536406 C 0.0 **** -0.24
7307 H 52.29282783330706 67.86463504274468 63.07469880380347 H 0.0 **** 0.06
7308 H 51.94724913187594 69.1259578000695 64.28159240573535 H 0.0 **** 0.06
7309 H 52.32706229408686 69.58013419109591 62.60190644842862 H 0.0 **** 0.06
7310 H 53.60194406949107 68.92129258741596 63.65548142226646 H 0.0 **** 0.06
7311 C 46.77393573824516 31.79179676198273 20.750736890189167 C 0.0 **** -0.24
7312 H 47.705634813482106 32.09184283622422 21.231924094549214 H 0.0 **** 0.06
7313 H 46.90842247545136 31.788549801043665 19.66932086889766 H 0.0 **** 0.06
7314 H 45.98587497326733 32.496384986583365 21.017518739747285 H 0.0 **** 0.06
7315 H 46.49737055221857 30.792727981921942 21.087376350892114 H 0.0 **** 0.06
7316 C 84.49332507840336 33.376898644747314 78.98393006445815 C 0.0 **** -0.24
7317 H 84.5831021439451 32.8631465107764 78.02639848555674 H 0.0 **** 0.06
7318 H 83.44994274008656 33.64378976614907 79.15595144810999 H 0.0 **** 0.06
7319 H 85.10307553021096 34.28051461096359 78.96904863074826 H 0.0 **** 0.06
7320 H 84.83650390258038 32.71926635263003 79.7823791298332 H 0.0 **** 0.06
7321 C 91.94430477651511 10.692410963903512 54.6116545888061 C 0.0 **** -0.24
7322 H 91.97105166725953 10.096391383484445 53.69918971335021 H 0.0 **** 0.06
7323 H 92.86464365210614 10.535879963314613 55.175096961526144 H 0.0 **** 0.06
7324 H 91.09035804977472 10.38864924919858 55.2183618869278 H 0.0 **** 0.06
7325 H 91.84955471014626 11.74690007696833 54.35425421396354 H 0.0 **** 0.06
7326 C 65.30614898671585 65.81611351524347 97.54327208309138 C 0.0 **** -0.24
7327 H 65.43373280182942 64.7344613222458 97.52986746025698 H 0.0 **** 0.06
7328 H 65.98018132308232 66.2525038079741 98.28060837071618 H 0.0 **** 0.06
7329 H 64.27532709638777 66.05742561284919 97.8042023521349 H 0.0 **** 0.06
7330 H 65.53489924997952 66.2210735533588 96.55753147672942 H 0.0 **** 0.06
7331 C 69.30025499611641 74.63973212267035 8.400186843940418 C 0.0 **** -0.24
7332 H 70.32900687072451 74.69993759155261 8.757726812252685 H 0.0 **** 0.06
7333 H 68.81424909254818 73.76804627339123 8.837416601468874 H 0.0 **** 0.06
7334 H 69.29855773648038 74.55050382556847 7.314049526813108 H 0.0 **** 0.06
7335 H 68.76158832062285 75.54171254279686 8.69239643996707 H 0.0 **** 0.06
7336 C 0.1302145733100133 66.5988966924354 63.16248491090819 C 0.0 **** -0.24
7337 H 1.1596158494114661 66.93188555955476 63.02859200980551 H 0.0 **** 0.06
7338 H 0.10176048902650336 65.79917971428029 63.902860493704836 H 0.0 **** 0.06
7339 H -0.25896724374717905 66.2319341418713 62.21341968608225 H 0.0 **** 0.06
7340 H -0.47931666820414875 67.43518091037697 63.50657835039311 H 0.0 **** 0.06
7341 C 50.535971491011196 98.89918987913535 62.84948474151861 C 0.0 **** -0.24
7342 H 51.50512785536148 98.44155445113455 62.65185477811468 H 0.0 **** 0.06
7343 H 49.86728631060083 98.15862993561257 63.290483674980635 H 0.0 **** 0.06
7344 H 50.10871283372444 99.26344713332287 61.9152901427002 H 0.0 **** 0.06
7345 H 50.66269254486588 99.73198447398693 63.541139854378116 H 0.0 **** 0.06
7346 C 46.756581814711915 14.161138408346346 58.16222034271078 C 0.0 **** -0.24
7347 H 47.37455911261882 14.453884061898165 57.31367813337957 H 0.0 **** 0.06
7348 H 47.18543216107202 14.563710231856916 59.08074810403923 H 0.0 **** 0.06
7349 H 46.7180695620364 13.072929301331598 58.22505094680761 H 0.0 **** 0.06
7350 H 45.74753200246833 14.55283502269512 58.0295849159906 H 0.0 **** 0.06
7351 C 27.10601545462609 24.09483209232407 36.17848545116158 C 0.0 **** -0.24
7352 H 27.632465435765198 23.344019070688976 35.58966454346776 H 0.0 **** 0.06
7353 H 26.784895233609944 24.908070289354733 35.52722641885404 H 0.0 **** 0.06
7354 H 27.77274182083204 24.48550874743079 36.947951254786176 H 0.0 **** 0.06
7355 H 26.234317201799342 23.640391284641456 36.64938095164311 H 0.0 **** 0.06
7356 C 38.99359158600301 57.82997052416596 34.96338751812522 C 0.0 **** -0.24
7357 H 38.18230309236513 57.68372838664635 35.67559325858136 H 0.0 **** 0.06
7358 H 39.90031953263512 57.36068898007096 35.34432464724702 H 0.0 **** 0.06
7359 H 39.16702979290897 58.89686285985522 34.82318840799769 H 0.0 **** 0.06
7360 H 38.72414088933417 57.378273508871644 34.00808492314596 H 0.0 **** 0.06
7361 C 92.23410847193026 23.16954708812534 34.69291106154151 C 0.0 **** -0.24
7362 H 92.0121379896632 22.269193273963623 35.26601662800363 H 0.0 **** 0.06
7363 H 91.50994285056737 23.945734453494723 34.94122177763654 H 0.0 **** 0.06
7364 H 92.17800923478985 22.944969699104405 33.6279238694691 H 0.0 **** 0.06
7365 H 93.23731411638924 23.517620382076814 34.93809723569967 H 0.0 **** 0.06
7366 C 78.68827880389506 19.78908842553372 83.97992222838803 C 0.0 **** -0.24
7367 H 78.53409969980848 18.833520851353253 84.48151598524572 H 0.0 **** 0.06
7368 H 79.21470496955627 20.46954780596714 84.64843575507268 H 0.0 **** 0.06
7369 H 77.72222022318185 20.217353524097426 83.71139341937146 H 0.0 **** 0.06
7370 H 79.28039683368135 19.634245159658338 83.07780655978803 H 0.0 **** 0.06
7371 C 51.307675321245675 67.97160984130336 3.6922913925675545 C 0.0 **** -0.24
7372 H 50.2494538056563 68.18933642232254 3.547625479744511 H 0.0 **** 0.06
7373 H 51.63645650820652 67.25421842281247 2.940172809278991 H 0.0 **** 0.06
7374 H 51.45909816688748 67.55127917385438 4.68630250592021 H 0.0 **** 0.06
7375 H 51.88330662618786 68.89143466959015 3.5945381624671313 H 0.0 **** 0.06
7376 C 73.76510405544354 85.25767254161326 100.14238614111713 C 0.0 **** -0.24
7377 H 73.70963826200989 85.78861880868307 101.09309561648956 H 0.0 **** 0.06
7378 H 74.15811170223222 85.92546760096185 99.37578871721334 H 0.0 **** 0.06
7379 H 72.76838965663592 84.92062058356734 99.85667776466096 H 0.0 **** 0.06
7380 H 74.42307845294334 84.3955310919457 100.24650446141732 H 0.0 **** 0.06
7381 C 56.23823973555501 15.822274498276471 36.02461482988544 C 0.0 **** -0.24
7382 H 55.75719141728047 15.960518044444058 35.05703794278422 H 0.0 **** 0.06
7383 H 56.83542521904527 14.91080423532506 36.00740141381018 H 0.0 **** 0.06
7384 H 55.47570958679977 15.742850444665663 36.80054236552602 H 0.0 **** 0.06
7385 H 56.88269652384944 16.676073092240074 36.23444400639584 H 0.0 **** 0.06
7386 C 40.462771491180185 62.79549423244637 86.61282768742603 C 0.0 **** -0.24
7387 H 39.548179125194494 62.693041216779164 87.19688080706868 H 0.0 **** 0.06
7388 H 41.06982137650485 63.60172874306656 87.02641115771198 H 0.0 **** 0.06
7389 H 40.209315639418215 63.02386833448074 85.5776208185581 H 0.0 **** 0.06
7390 H 41.02471919407724 61.86220308094943 86.65207411056903 H 0.0 **** 0.06
7391 C 65.00447567288423 75.23254353737754 68.90999020850583 C 0.0 **** -0.24
7392 H 65.30000691314528 75.2094339369194 69.95941631286604 H 0.0 **** 0.06
7393 H 64.15388580604937 75.9032769325628 68.78746482731468 H 0.0 **** 0.06
7394 H 64.7259579174342 74.2282085612573 68.59006521064113 H 0.0 **** 0.06
7395 H 65.83925343503391 75.58821160642312 68.3059246631678 H 0.0 **** 0.06
7396 C 30.99087670256222 101.03296123485417 46.48357160250037 C 0.0 **** -0.24
7397 H 31.09039350219777 102.10588992350903 46.32193542289115 H 0.0 **** 0.06
7398 H 30.140118829782608 100.84140597391078 47.137211005098706 H 0.0 **** 0.06
7399 H 31.899555263138893 100.65022361276496 46.948375922326626 H 0.0 **** 0.06
7400 H 30.834402211473474 100.53426098344717 45.52650226906509 H 0.0 **** 0.06
7401 C 106.78354324826125 105.02743525055692 8.81752599639717 C 0.0 **** -0.24
7402 H 107.55677313476508 105.72233162821051 8.49068290717498 H 0.0 **** 0.06
7403 H 105.93303204699663 105.58847214274732 9.207708361444729 H 0.0 **** 0.06
7404 H 107.18298089606088 104.38136412489051 9.598684420197456 H 0.0 **** 0.06
7405 H 106.46103613495274 104.41941240373382 7.971448981817488 H 0.0 **** 0.06
7406 C 77.16316523201353 36.753810501111104 27.48785266826505 C 0.0 **** -0.24
7407 H 77.14483291898884 36.07067378784282 28.337805659012105 H 0.0 **** 0.06
7408 H 77.8459983775752 37.577045721865886 27.69960149413413 H 0.0 **** 0.06
7409 H 76.16099547795498 37.146301478470264 27.316019985043027 H 0.0 **** 0.06
7410 H 77.50139534447966 36.2194621564021 26.600348259510838 H 0.0 **** 0.06
7411 C 102.04081178237493 19.15594064974323 65.49437587950155 C 0.0 **** -0.24
7412 H 101.95817099389498 18.071890496581545 65.57282733670434 H 0.0 **** 0.06
7413 H 102.22882551444434 19.579419753924356 66.48122195175489 H 0.0 **** 0.06
7414 H 101.11245222269548 19.562389267176172 65.09463490041861 H 0.0 **** 0.06
7415 H 102.86491191126254 19.40976398319657 64.82718506239212 H 0.0 **** 0.06
7416 C 18.046803281344296 63.29669878067379 67.5788330688974 C 0.0 **** -0.24
7417 H 19.12762001719092 63.268591332365816 67.4336121531088 H 0.0 **** 0.06
7418 H 17.81414195353321 63.069582827392026 68.61860075957786 H 0.0 **** 0.06
7419 H 17.57498400071772 62.55757356072597 66.93080191476977 H 0.0 **** 0.06
7420 H 17.67319503558187 64.29008717229824 67.33069351302139 H 0.0 **** 0.06
7421 C 1.8641419679096733 86.4729095585534 43.28573785604723 C 0.0 **** -0.24
7422 H 2.5631788869703085 85.70241751025098 42.96036997777807 H 0.0 **** 0.06
7423 H 1.100777294073656 86.0254886821684 43.92248098310095 H 0.0 **** 0.06
7424 H 1.3908279796622498 86.9253233515255 42.413298987952054 H 0.0 **** 0.06
7425 H 2.402150194241502 87.23852138130732 43.84483852123214 H 0.0 **** 0.06
7426 C 48.46537569304226 45.05327788739807 40.31155942689816 C 0.0 **** -0.24
7427 H 48.59128427233463 43.97463759289245 40.210435347293185 H 0.0 **** 0.06
7428 H 47.77500827080425 45.41066089467979 39.54753451248996 H 0.0 **** 0.06
7429 H 49.43123570757922 45.54396166784117 40.187121592185946 H 0.0 **** 0.06
7430 H 48.06682016249988 45.28191524224861 41.299678489847565 H 0.0 **** 0.06
7431 C 40.32953969329368 72.21264232595746 76.44712707592174 C 0.0 **** -0.24
7432 H 40.452480888242505 71.29718916146732 77.02686053785382 H 0.0 **** 0.06
7433 H 40.75873662284372 73.05052535324273 76.996239883773 H 0.0 **** 0.06
7434 H 39.26781980101816 72.39452912842967 76.27707713748612 H 0.0 **** 0.06
7435 H 40.8377947544054 72.10564304401044 75.4885401797496 H 0.0 **** 0.06
7436 C 4.345639200248497 51.501444290736146 87.55116549154278 C 0.0 **** -0.24
7437 H 4.4516910669834076 50.43541766294939 87.75353673228432 H 0.0 **** 0.06
7438 H 4.0834213916876045 52.02050071169208 88.47279399046519 H 0.0 **** 0.06
7439 H 3.55963898395483 51.653838859995886 86.8110003367629 H 0.0 **** 0.06
7440 H 5.287140737906775 51.89327344505995 87.16720638442803 H 0.0 **** 0.06
7441 C 12.697256203402759 66.93784165487459 45.19934036411132 C 0.0 **** -0.24
7442 H 13.292746637011803 67.27505148225978 44.35078538526529 H 0.0 **** 0.06
7443 H 13.038780505236232 65.95212701551222 45.51381074082076 H 0.0 **** 0.06
7444 H 11.648132981568068 66.88443408571803 44.90903889209438 H 0.0 **** 0.06
7445 H 12.810083662759595 67.64258171574761 46.024424830050386 H 0.0 **** 0.06
7446 C 87.8911697427056 34.617836287120156 102.38654661804729 C 0.0 **** -0.24
7447 H 88.27133645259295 35.500329112563804 102.89933942085513 H 0.0 **** 0.06
7448 H 88.45693386172626 34.4595011931487 101.46772188657897 H 0.0 **** 0.06
7449 H 86.83804156265684 34.76373272008226 102.14444710567813 H 0.0 **** 0.06
7450 H 87.99783536783043 33.74666382810483 103.03346693013519 H 0.0 **** 0.06
7451 C 87.14824458418718 88.01376985088524 68.8241433992808 C 0.0 **** -0.24
7452 H 88.02787329344517 87.4826783416604 68.46042921818245 H 0.0 **** 0.06
7453 H 86.28446801968096 87.7470831745124 68.21553095797391 H 0.0 **** 0.06
7454 H 87.32092661293228 89.08802832304951 68.7598899236007 H 0.0 **** 0.06
7455 H 86.96189749481687 87.7380697826926 69.8623385263702 H 0.0 **** 0.06
7456 C 50.91029952765473 66.56868416792128 82.88760194006231 C 0.0 **** -0.24
7457 H 50.58963997264033 65.86212707406673 82.12241218621152 H 0.0 **** 0.06
7458 H 50.19584673560581 66.56122715241355 83.71186619000534 H 0.0 **** 0.06
7459 H 50.95876244276033 67.57058570709955 82.45896036077704 H 0.0 **** 0.06
7460 H 51.89493104551448 66.28261822877874 83.25638762016403 H 0.0 **** 0.06
7461 C 66.87330570381847 102.41708945509743 20.880928717981945 C 0.0 **** -0.24
7462 H 66.6036111844676 101.91878715990748 19.949190232459756 H 0.0 **** 0.06
7463 H 67.5409663402801 101.77382794912322 21.45572073594748 H 0.0 **** 0.06
7464 H 65.97150369176613 102.6148799714685 21.460256691062398 H 0.0 **** 0.06
7465 H 67.37634382985497 103.35727439180937 20.657848630698822 H 0.0 **** 0.06
7466 C 10.631771256488975 0.3921491805612902 100.1316613556063 C 0.0 **** -0.24
7467 H 10.581537433926997 0.9228986477673828 101.0826063855069 H 0.0 **** 0.06
7468 H 11.477560355607167 -0.2963885257008343 100.14441144126981 H 0.0 **** 0.06
7469 H 10.76048284331894 1.1107159086986513 99.3218471313823 H 0.0 **** 0.06
7470 H 9.709620333307512 -0.16699235246811384 99.97946678197009 H 0.0 **** 0.06
7471 C 38.98749726493668 45.46565277970768 44.15224513784682 C 0.0 **** -0.24
7472 H 40.05115321327696 45.40981750979921 43.92174289216263 H 0.0 **** 0.06
7473 H 38.439026251872235 45.780941256530184 43.26477425148914 H 0.0 **** 0.06
7474 H 38.82770074215807 46.18675391610171 44.954298827368916 H 0.0 **** 0.06
7475 H 38.632395380966614 44.48450782111888 44.46941724715646 H 0.0 **** 0.06
7476 C 71.77557265099747 42.79640799429643 21.853608439685985 C 0.0 **** -0.24
7477 H 72.0987026977865 41.804376124534826 22.169647395108512 H 0.0 **** 0.06
7478 H 72.54346062351186 43.24450490268521 21.22298090520495 H 0.0 **** 0.06
7479 H 71.61472681407008 43.422100156119654 22.73159864747224 H 0.0 **** 0.06
7480 H 70.8453245024071 42.71284325291185 21.29105958472114 H 0.0 **** 0.06
7481 C 104.17380406866624 5.739207058030525 34.792976639716386 C 0.0 **** -0.24
7482 H 104.9951733933032 5.985900208015041 35.465319378389225 H 0.0 **** 0.06
7483 H 103.22655161611989 5.983422044465026 35.272763724149726 H 0.0 **** 0.06
7484 H 104.20162171229371 4.673900508060447 34.56237951806344 H 0.0 **** 0.06
7485 H 104.27420567380908 6.31288618733584 33.87128435513304 H 0.0 **** 0.06
7486 C 93.59290714844806 74.63202073935287 15.228548823263338 C 0.0 **** -0.24
7487 H 93.16679582819937 73.65866552916214 14.983367888960345 H 0.0 **** 0.06
7488 H 92.82025636747547 75.39706318473822 15.143373934523538 H 0.0 **** 0.06
7489 H 94.40522695805063 74.85692189932075 14.538463475552305 H 0.0 **** 0.06
7490 H 93.97567730655095 74.61360145318775 16.248584881849126 H 0.0 **** 0.06
7491 C 84.61997168605097 54.269718706142726 33.51162372768996 C 0.0 **** -0.24
7492 H 85.26071969324346 54.315706186384546 32.6308581391 H 0.0 **** 0.06
7493 H 84.08990241549645 55.21494589554118 33.624441923313995 H 0.0 **** 0.06
7494 H 85.23034431467505 54.0869188966565 34.39599771333395 H 0.0 **** 0.06
7495 H 83.8993112584524 53.46024644121297 33.393882140136384 H 0.0 **** 0.06
7496 C 91.24001445739694 79.09693490522743 108.00591244801292 C 0.0 **** -0.24
7497 H 90.545774555888 79.64638065012808 107.36964188803658 H 0.0 **** 0.06
7498 H 92.25752067662941 79.23888409586876 107.64160297962111 H 0.0 **** 0.06
7499 H 90.99039752195416 78.0363163424748 107.9843371711058 H 0.0 **** 0.06
7500 H 91.16445093609653 79.46703979543115 109.02881588100668 H 0.0 **** 0.06
7501 C 75.98380356811856 18.93358213365502 45.53647889120259 C 0.0 **** -0.24
7502 H 77.06496969903878 19.039448901436003 45.45308322199355 H 0.0 **** 0.06
7503 H 75.73856183425147 18.449074142191236 46.481410817808865 H 0.0 **** 0.06
7504 H 75.61286355395731 18.327187723612457 44.710187061987085 H 0.0 **** 0.06
7505 H 75.51871212964875 19.919277117508084 45.50197867136461 H 0.0 **** 0.06
7506 C 55.25546218163462 99.78722284698352 18.550461438386264 C 0.0 **** -0.24
7507 H 55.946460974663836 99.02038700799275 18.198611488164715 H 0.0 **** 0.06
7508 H 55.81449602553916 100.57736639842085 19.053081832639634 H 0.0 **** 0.06
7509 H 54.545447667755106 99.34370883332178 19.24771570902257 H 0.0 **** 0.06
7510 H 54.71700848509257 100.20680990870102 17.70096384902405 H 0.0 **** 0.06
7511 C 38.62005973542017 14.997256685985036 2.1944365162787705 C 0.0 **** -0.24
7512 H 38.838285432718806 16.039631525552323 2.4247559862043078 H 0.0 **** 0.06
7513 H 37.70822491246457 14.694339871338713 2.7095515949734867 H 0.0 **** 0.06
7514 H 39.449232185178175 14.371291819334687 2.5241771672264495 H 0.0 **** 0.06
7515 H 38.48537311196816 14.884463025976856 1.1183998080087614 H 0.0 **** 0.06
7516 C 22.801475001781615 25.362948826260947 35.957959063114096 C 0.0 **** -0.24
7517 H 22.173462281150066 25.733882276786062 35.146752333775474 H 0.0 **** 0.06
7518 H 22.754098103687475 26.055192493739128 36.79889664904288 H 0.0 **** 0.06
7519 H 23.83163956739111 25.282939574265328 35.61028195519871 H 0.0 **** 0.06
7520 H 22.44634224770732 24.381946309208104 36.273225047199794 H 0.0 **** 0.06
7521 C 40.25931773782266 15.080319028630853 84.50275432545254 C 0.0 **** -0.24
7522 H 40.26892733522121 15.916061555918532 85.202176179222 H 0.0 **** 0.06
7523 H 41.25852624032388 14.650608379329299 84.43585169390272 H 0.0 **** 0.06
7524 H 39.94903318241726 15.433112318042703 83.51845237653265 H 0.0 **** 0.06
7525 H 39.56004175845707 14.321194059567745 84.85337128694636 H 0.0 **** 0.06
7526 C 9.221483604848885 5.472149364759517 21.822638914768206 C 0.0 **** -0.24
7527 H 9.753945523658658 6.127250239487722 21.132550477292057 H 0.0 **** 0.06
7528 H 9.93497979847659 4.824497165668802 22.331199262727992 H 0.0 **** 0.06
7529 H 8.507050950274063 4.864162247654406 21.268600597274087 H 0.0 **** 0.06
7530 H 8.690644194881003 6.076340969167248 22.558634777796783 H 0.0 **** 0.06
7531 C 70.78405320870723 0.16139293008107813 37.435615793286246 C 0.0 **** -0.24
7532 H 70.53472602911165 -0.7949384240622237 37.89529628974549 H 0.0 **** 0.06
7533 H 71.0063266766706 0.009256611329632847 36.37895030300251 H 0.0 **** 0.06
7534 H 71.6563938180351 0.5869550368360876 37.93263054921016 H 0.0 **** 0.06
7535 H 69.94052626547773 0.8433770027693015 37.53535449656533 H 0.0 **** 0.06
7536 C 38.63734955078951 51.373577145986076 27.611275066002264 C 0.0 **** -0.24
7537 H 38.02605838054524 52.179725944284115 28.015696917952084 H 0.0 **** 0.06
7538 H 38.388098578429606 51.22172076801962 26.56060075578759 H 0.0 **** 0.06
7539 H 38.444869649413874 50.456320372202896 28.166389725748246 H 0.0 **** 0.06
7540 H 39.69063586907305 51.63828654640187 27.699788847438697 H 0.0 **** 0.06
7541 C 31.24322935588424 16.99684728245488 12.544887792301424 C 0.0 **** -0.24
7542 H 31.75413198505612 17.885177789742713 12.91738116990949 H 0.0 **** 0.06
7543 H 31.670734034697944 16.7066444485221 11.585794540609228 H 0.0 **** 0.06
7544 H 30.182365179315866 17.214630931373506 12.420431547689617 H 0.0 **** 0.06
7545 H 31.365557600521043 16.182736100854342 13.259065383973706 H 0.0 **** 0.06
7546 C 73.92853185263345 73.67805493983799 41.32001047665082 C 0.0 **** -0.24
7547 H 74.88844470457335 73.22423153283518 41.56865590750144 H 0.0 **** 0.06
7548 H 74.0966066806389 74.66523892999254 40.88699016144437 H 0.0 **** 0.06
7549 H 73.32676562039018 73.77486339863043 42.223708651075725 H 0.0 **** 0.06
7550 H 73.40546761714356 73.04946823044897 40.599450688145254 H 0.0 **** 0.06
7551 C 6.993810067545958 46.41351626490081 94.64016962113661 C 0.0 **** -0.24
7552 H 7.9931202145025075 46.174328053140925 95.00146867590905 H 0.0 **** 0.06
7553 H 6.261028262435197 46.16956443972674 95.40957732490925 H 0.0 **** 0.06
7554 H 6.783832330420999 45.83500739440677 93.74075332114163 H 0.0 **** 0.06
7555 H 6.9372683711918715 47.47754412265641 94.40829537045083 H 0.0 **** 0.06
7556 C 73.27381831277535 93.75969138856988 33.14666654112182 C 0.0 **** -0.24
7557 H 72.87756438641219 93.81374763520509 34.16068854049195 H 0.0 **** 0.06
7558 H 72.9197111869442 92.84719279055665 32.667310408602134 H 0.0 **** 0.06
7559 H 74.36304026719819 93.75245366172476 33.18258304185011 H 0.0 **** 0.06
7560 H 72.93486162014881 94.6246822500899 32.577959274266135 H 0.0 **** 0.06
7561 C 59.7142438457704 64.0354760841253 13.65254811705465 C 0.0 **** -0.24
7562 H 60.51141786717341 64.77721005354381 13.622915637880752 H 0.0 **** 0.06
7563 H 59.512611136202054 63.678277596440736 12.641292713130312 H 0.0 **** 0.06
7564 H 58.81219589200583 64.48714708743582 14.065546501135827 H 0.0 **** 0.06
7565 H 60.02076684390323 63.197742770579666 14.27880397751457 H 0.0 **** 0.06
7566 C 9.733660082453596 1.841197266801231 65.32791143062644 C 0.0 **** -0.24
7567 H 10.229019100785507 1.1563944300568778 64.63889152547256 H 0.0 **** 0.06
7568 H 9.215981289537211 1.2700099228298996 66.09865039929088 H 0.0 **** 0.06
7569 H 9.013681075236434 2.4485737912474974 64.78042554381324 H 0.0 **** 0.06
7570 H 10.476879686887742 2.488452582087575 65.79253492823625 H 0.0 **** 0.06
7571 C 99.99707358969184 73.24838403905817 51.54285555801595 C 0.0 **** -0.24
7572 H 99.90979664069589 73.08575311155855 52.617072377022374 H 0.0 **** 0.06
7573 H 101.02077157790025 73.53359603720632 51.3000543718988 H 0.0 **** 0.06
7574 H 99.31579812592035 74.04293410172079 51.24026879470276 H 0.0 **** 0.06
7575 H 99.7412234383012 72.32887790593313 51.01539173238983 H 0.0 **** 0.06
7576 C 0.4315173057490398 53.7936524924136 104.59214777610802 C 0.0 **** -0.24
7577 H -0.19916848767815054 52.989507905319584 104.97003497120666 H 0.0 **** 0.06
7578 H -0.10038667202539386 54.742297455732285 104.67633118400546 H 0.0 **** 0.06
7579 H 0.6740300686499978 53.60417839977535 103.54648435392679 H 0.0 **** 0.06
7580 H 1.350441193432431 53.83932116662817 105.17617354516325 H 0.0 **** 0.06
7581 C 17.53858198655911 50.4786319223785 14.676275718087481 C 0.0 **** -0.24
7582 H 16.543021929002805 50.65085277907721 14.267350287778015 H 0.0 **** 0.06
7583 H 18.014375586764686 49.65698670865311 14.140892251066475 H 0.0 **** 0.06
7584 H 17.45735625685461 50.22582482023637 15.733786403474 H 0.0 **** 0.06
7585 H 18.137878525042197 51.38229294703274 14.564113841431862 H 0.0 **** 0.06
7586 C 102.5913489706592 49.95914105386905 29.42580692495318 C 0.0 **** -0.24
7587 H 103.65453479069008 49.84382663650047 29.63610040982516 H 0.0 **** 0.06
7588 H 102.40538873914991 49.75067759341377 28.37134652665725 H 0.0 **** 0.06
7589 H 102.28442343366427 50.979627192238155 29.654806086885884 H 0.0 **** 0.06
7590 H 102.0215011844503 49.261434069692996 30.039633723115003 H 0.0 **** 0.06
7591 C 39.45249516379022 47.49067799150731 24.916498455886256 C 0.0 **** -0.24
7592 H 39.47935028668968 48.022762964514925 25.86804262466788 H 0.0 **** 0.06
7593 H 38.579768255756505 46.83772443019984 24.89097824193763 H 0.0 **** 0.06
7594 H 40.35795617906717 46.893466233375875 24.808742571598543 H 0.0 **** 0.06
7595 H 39.391892781769684 48.209569605922184 24.100051268440637 H 0.0 **** 0.06
7596 C 21.280201943273312 41.62777640956685 102.0423744386427 C 0.0 **** -0.24
7597 H 21.024500207991423 40.88439108188496 101.28741236405222 H 0.0 **** 0.06
7598 H 20.845714239260246 42.588874667089414 101.76656388683136 H 0.0 **** 0.06
7599 H 22.36287535715303 41.72327983405603 102.10610121818581 H 0.0 **** 0.06
7600 H 20.884900002236805 41.31428834547495 103.00842746890214 H 0.0 **** 0.06
7601 C 51.65560388743779 109.50965652575832 52.5505502671274 C 0.0 **** -0.24
7602 H 51.37199669071879 109.6860298682904 51.51251206312122 H 0.0 **** 0.06
7603 H 52.727970632400684 109.32402248576744 52.60832062497343 H 0.0 **** 0.06
7604 H 51.1154538168544 108.64306502565711 52.93113391231547 H 0.0 **** 0.06
7605 H 51.40483952513756 110.38545214747927 53.14840316590329 H 0.0 **** 0.06
7606 C 43.0784147252638 59.88787554113935 33.57623822340969 C 0.0 **** -0.24
7607 H 42.678639271151255 59.147636352590354 32.88465866037808 H 0.0 **** 0.06
7608 H 43.881844678821494 60.44320730623923 33.08959674032056 H 0.0 **** 0.06
7609 H 43.469004412124974 59.3855851963024 34.461506539681864 H 0.0 **** 0.06
7610 H 42.28641900554477 60.57652558186638 33.870105119071496 H 0.0 **** 0.06
7611 C 50.29633294843376 76.77042595941955 66.19437796889494 C 0.0 **** -0.24
7612 H 50.87590791537809 75.85577354410727 66.07068211187782 H 0.0 **** 0.06
7613 H 50.962388772157965 77.63276127717849 66.13888550799001 H 0.0 **** 0.06
7614 H 49.79992868011732 76.75641646320004 67.16490278620654 H 0.0 **** 0.06
7615 H 49.54914273492773 76.83680157753888 65.40440210912566 H 0.0 **** 0.06
7616 C 40.22518803914378 82.07962870678057 109.57473873015078 C 0.0 **** -0.24
7617 H 39.41856901814879 81.83193125125703 108.88497603769693 H 0.0 **** 0.06
7618 H 40.84441249219501 82.86514177540914 109.14204468253496 H 0.0 **** 0.06
7619 H 40.83412083625579 81.19341386328884 109.75444399248238 H 0.0 **** 0.06
7620 H 39.803484579436784 82.42695956227533 110.51840200449575 H 0.0 **** 0.06
7621 C 36.073305367462865 52.08556070941927 105.7901190018049 C 0.0 **** -0.24
7622 H 36.16614044076159 52.87614249273966 105.04481704525386 H 0.0 **** 0.06
7623 H 35.315828061990004 52.36582526686743 106.5239090977608 H 0.0 **** 0.06
7624 H 37.029956837044224 51.94405309167695 106.29085577521761 H 0.0 **** 0.06
7625 H 35.77784403093261 51.157605020587795 105.30048066219928 H 0.0 **** 0.06
7626 C 27.348494471757803 33.88858876654962 96.95544922967792 C 0.0 **** -0.24
7627 H 26.55131833454722 33.77105360688415 97.68960423035566 H 0.0 **** 0.06
7628 H 27.924098028706567 32.96458426704345 96.89381212147993 H 0.0 **** 0.06
7629 H 28.002899181783548 34.70577485339015 97.25769780807312 H 0.0 **** 0.06
7630 H 26.914267810213953 34.11293675644043 95.98091802257755 H 0.0 **** 0.06
7631 C 3.631003982019294 17.729266661543335 84.78034914544688 C 0.0 **** -0.24
7632 H 2.886929495697359 17.659371027061525 83.98744966960896 H 0.0 **** 0.06
7633 H 3.1295104596392775 17.786032826768007 85.74676610589103 H 0.0 **** 0.06
7634 H 4.237474887726137 18.62281455089368 84.63195075951194 H 0.0 **** 0.06
7635 H 4.27248504080859 16.84706727260776 84.75484879794632 H 0.0 **** 0.06
7636 C 46.173168779212006 32.09159879114537 74.41153716313877 C 0.0 **** -0.24
7637 H 46.66927504852788 32.82897473126735 73.78111419802188 H 0.0 **** 0.06
7638 H 46.85228854259202 31.773058707645475 75.2017120635672 H 0.0 **** 0.06
7639 H 45.88937747622825 31.229699459042536 73.80711931757531 H 0.0 **** 0.06
7640 H 45.280990550426765 32.53413433327103 74.85416132334899 H 0.0 **** 0.06
7641 C 59.40945951473992 70.04873312278798 20.238009842117094 C 0.0 **** -0.24
7642 H 58.53783462935496 70.6850772334482 20.087487230494446 H 0.0 **** 0.06
7643 H 59.08588057663397 69.01796882506481 20.385883245323043 H 0.0 **** 0.06
7644 H 59.959190680128756 70.38670067515307 21.11648206394966 H 0.0 **** 0.06
7645 H 60.05627987414067 70.10526794980426 19.361766061870412 H 0.0 **** 0.06
7646 C 43.77309109269337 24.524797740392444 80.06380219158038 C 0.0 **** -0.24
7647 H 43.80117351771688 23.77062015825038 79.27791710455233 H 0.0 **** 0.06
7648 H 44.15177682648539 24.096076801836148 80.99250635014863 H 0.0 **** 0.06
7649 H 42.74569865459988 24.858846809155864 80.21040330539844 H 0.0 **** 0.06
7650 H 44.39336844063753 25.37282136841293 79.77547642506539 H 0.0 **** 0.06
7651 C 62.635271898547714 101.47510326204036 32.53734079706445 C 0.0 **** -0.24
7652 H 63.640845318846246 101.33741897479462 32.935894482577545 H 0.0 **** 0.06
7653 H 62.380031580397 100.63148856777138 31.89699992700998 H 0.0 **** 0.06
7654 H 62.59838383155636 102.39690265471677 31.957550343219978 H 0.0 **** 0.06
7655 H 61.92426013654182 101.53614153535631 33.36108921318135 H 0.0 **** 0.06
7656 C 91.70215277404496 96.04169042070332 45.45867378807549 C 0.0 **** -0.24
7657 H 91.18680475119888 95.71045304227039 46.36059734956706 H 0.0 **** 0.06
7658 H 92.28677158817547 95.21612362988027 45.05098732644461 H 0.0 **** 0.06
7659 H 92.36613866620068 96.87085386193907 45.703237871577755 H 0.0 **** 0.06
7660 H 90.96938923397045 96.36784185417044 44.721113172945536 H 0.0 **** 0.06
7661 C 5.755734310074445 90.75833562395763 56.21843736140801 C 0.0 **** -0.24
7662 H 5.611088867631992 89.94270809086407 56.926808224378476 H 0.0 **** 0.06
7663 H 5.130788092118252 90.59076311779785 55.34015173681303 H 0.0 **** 0.06
7664 H 6.803085985169474 90.79698283315133 55.918241179318045 H 0.0 **** 0.06
7665 H 5.476583665040778 91.70114290393172 56.68840884223985 H 0.0 **** 0.06
7666 C 72.76137729787082 59.89186560308055 2.0631252512400096 C 0.0 **** -0.24
7667 H 73.18136108173347 59.97027383733143 3.0659730164226175 H 0.0 **** 0.06
7668 H 72.89502207295654 58.87530342945493 1.6920924692353054 H 0.0 **** 0.06
7669 H 73.27288471524855 60.5904855934843 1.4003596990405498 H 0.0 **** 0.06
7670 H 71.6986426818768 60.1310819671843 2.0937112579391766 H 0.0 **** 0.06
7671 C 74.65502111528886 87.72670744748052 67.95789376305154 C 0.0 **** -0.24
7672 H 75.34144229872925 88.46535061724376 67.54162439544965 H 0.0 **** 0.06
7673 H 73.63498183895433 88.1050459123696 67.8964795233168 H 0.0 **** 0.06
7674 H 74.91233416969882 87.53966550206293 69.00029203169765 H 0.0 **** 0.06
7675 H 74.73493261926225 86.7983406656536 67.39159156881357 H 0.0 **** 0.06
7676 C 45.528925358053925 24.396172813965563 71.02300928343169 C 0.0 **** -0.24
7677 H 45.11947660678854 23.97447042532056 71.94034434950824 H 0.0 **** 0.06
7678 H 46.54237966114522 24.024095693300893 70.87306645845341 H 0.0 **** 0.06
7679 H 45.54801778387997 25.483097950678058 71.09993177198423 H 0.0 **** 0.06
7680 H 44.90512067712325 24.10241305611322 70.1783431796026 H 0.0 **** 0.06
7681 C 3.079011716827222 30.26672675326671 19.564423996168824 C 0.0 **** -0.24
7682 H 3.748969644196732 31.123191327400605 19.490284528191424 H 0.0 **** 0.06
7683 H 2.809733165886742 30.10571080079501 20.608427253887236 H 0.0 **** 0.06
7684 H 3.5790853806675713 29.38040144778816 19.175787177668703 H 0.0 **** 0.06
7685 H 2.1776764928221004 30.460379638830716 18.982220187238774 H 0.0 **** 0.06
7686 C 23.673367296435487 41.01956002300366 15.048883154449143 C 0.0 **** -0.24
7687 H 22.93550775292394 40.75326872941025 14.291692865822753 H 0.0 **** 0.06
7688 H 23.74101505497603 40.219092540017414 15.786850323651848 H 0.0 **** 0.06
7689 H 23.370678340936877 41.94391570924731 15.540917530590434 H 0.0 **** 0.06
7690 H 24.644325166711866 41.16113456482489 14.57533772438559 H 0.0 **** 0.06
7691 C 95.23301337460634 36.655259102857414 93.96126428491961 C 0.0 **** -0.24
7692 H 95.03013669587017 35.585434585511365 93.90626929756479 H 0.0 **** 0.06
7693 H 95.94282395086677 36.9311594340585 93.18080553249733 H 0.0 **** 0.06
7694 H 95.65450121872243 36.89488935428904 94.93763010580373 H 0.0 **** 0.06
7695 H 94.30543683557238 37.208448531193085 93.82060871367418 H 0.0 **** 0.06
7696 C 99.00705212971594 81.05442844815101 0.4989685416933014 C 0.0 **** -0.24
7697 H 98.29140395773996 81.60737976701489 1.1072821029688384 H 0.0 **** 0.06
7698 H 98.61123521467411 80.06081772160977 0.285559016846463 H 0.0 **** 0.06
7699 H 99.94843801207995 80.96141962768823 1.0408549345578706 H 0.0 **** 0.06
7700 H 99.17764788447073 81.586930738673 -0.43598503888645723 H 0.0 **** 0.06
7701 C 14.119754788760815 64.46609602861015 96.01451440693961 C 0.0 **** -0.24
7702 H 14.091263357172139 63.43024505410922 96.35108655316668 H 0.0 **** 0.06
7703 H 13.921802813604984 64.50613485690432 94.94323349729817 H 0.0 **** 0.06
7704 H 15.104694600554694 64.88749552495516 96.2169814991139 H 0.0 **** 0.06
7705 H 13.362093842637023 65.04249781770062 96.54616821659442 H 0.0 **** 0.06
7706 C 12.170646574201228 32.51157733195316 23.10661856392268 C 0.0 **** -0.24
7707 H 13.009486732215976 31.84505063899016 22.910319969886956 H 0.0 **** 0.06
7708 H 11.644705531628105 32.179393810393634 24.00188891930351 H 0.0 **** 0.06
7709 H 11.488488445768667 32.49738083794733 22.256344119530922 H 0.0 **** 0.06
7710 H 12.540730073615322 33.526545899644105 23.257658175375525 H 0.0 **** 0.06
7711 C 16.985120845184053 33.13690069662607 13.147897052295036 C 0.0 **** -0.24
7712 H 16.32348788126332 32.983368118001806 12.295805862118158 H 0.0 **** 0.06
7713 H 17.67011037766311 32.29335261753215 13.23264276140415 H 0.0 **** 0.06
7714 H 16.390775154339178 33.21564185505383 14.059186787741083 H 0.0 **** 0.06
7715 H 17.5547290867502 34.05532022538665 13.004995348806943 H 0.0 **** 0.06
7716 C 27.587556922943804 11.435745996609114 49.06251425262968 C 0.0 **** -0.24
7717 H 28.108628118818558 12.113973342950032 49.73773666462347 H 0.0 **** 0.06
7718 H 27.36728719292779 10.503166420169123 49.58251854973429 H 0.0 **** 0.06
7719 H 28.21892832752974 11.228770445501652 48.19751991022167 H 0.0 **** 0.06
7720 H 26.657432337841385 11.896425125038888 48.73110541919044 H 0.0 **** 0.06
7721 C 6.62005124175071 57.612823416887835 96.61998459292579 C 0.0 **** -0.24
7722 H 7.692969328447159 57.584466482112276 96.80756518713758 H 0.0 **** 0.06
7723 H 6.103620225311589 57.01602243403994 97.37237644444997 H 0.0 **** 0.06
7724 H 6.4142476408773454 57.20710876831933 95.62941840683868 H 0.0 **** 0.06
7725 H 6.269367772366772 58.643695983079965 96.67057833327709 H 0.0 **** 0.06
7726 C 108.35220284388359 48.56996677934916 54.54342337198639 C 0.0 **** -0.24
7727 H 107.31588593061471 48.23998265743006 54.61191110565511 H 0.0 **** 0.06
7728 H 108.42988887582433 49.59885070665183 54.89580901742019 H 0.0 **** 0.06
7729 H 108.68370297248626 48.514571919628054 53.506991565023526 H 0.0 **** 0.06
7730 H 108.97947655492692 47.925494569810496 55.16000359366487 H 0.0 **** 0.06
7731 C 36.99015289012124 105.62143005663091 102.67627705405758 C 0.0 **** -0.24
7732 H 37.63895892955003 105.91520322289203 101.85229112013886 H 0.0 **** 0.06
7733 H 36.25118576783865 106.40345033129861 102.85233321372557 H 0.0 **** 0.06
7734 H 37.58777854979914 105.47700564522425 103.57615982910065 H 0.0 **** 0.06
7735 H 36.4811215865717 104.6907229479942 102.42465173718054 H 0.0 **** 0.06
7736 C 105.3833804259285 53.38897178427669 30.401315241749046 C 0.0 **** -0.24
7737 H 105.76971605813466 53.153338390633394 29.40974197610742 H 0.0 **** 0.06
7738 H 104.32619454714566 53.12909210304332 30.449991774946646 H 0.0 **** 0.06
7739 H 105.50582846030036 54.454971484029215 30.594638838532212 H 0.0 **** 0.06
7740 H 105.9334195451623 52.817765843485176 31.14921403656311 H 0.0 **** 0.06
7741 C 108.9246741905065 99.97370620982396 55.81046470286244 C 0.0 **** -0.24
7742 H 109.97056312744178 99.66910665591583 55.768520423038744 H 0.0 **** 0.06
7743 H 108.47220707932749 99.59413211074926 56.727905163451396 H 0.0 **** 0.06
7744 H 108.39316449575674 99.56855175585535 54.94897401130401 H 0.0 **** 0.06
7745 H 108.86203822735371 101.0621790597023 55.798115957615444 H 0.0 **** 0.06
7746 C 3.0685394090805858 15.280777778632665 34.508494371448705 C 0.0 **** -0.24
7747 H 2.730212786362017 14.53543998130581 35.22904595276884 H 0.0 **** 0.06
7748 H 2.2048969004264904 15.772614377731895 34.061147492201485 H 0.0 **** 0.06
7749 H 3.653955181691174 14.793509318245452 33.72983744950591 H 0.0 **** 0.06
7750 H 3.6858227696632184 16.02166543133157 35.01685410239497 H 0.0 **** 0.06
7751 C 30.66505720428505 30.670698297852454 76.05094873622221 C 0.0 **** -0.24
7752 H 30.799814120480725 31.156349529364547 75.08439437913597 H 0.0 **** 0.06
7753 H 31.20664168923752 29.724323010641825 76.05989134199632 H 0.0 **** 0.06
7754 H 29.604545207328194 30.485615398315474 76.21916123590768 H 0.0 **** 0.06
7755 H 31.051196088161277 31.317114569649505 76.83841021289214 H 0.0 **** 0.06
7756 C 23.076848382571406 23.53787813867691 82.64228592968665 C 0.0 **** -0.24
7757 H 23.374397908977844 24.587429109755025 82.64226614746613 H 0.0 **** 0.06
7758 H 22.60492799583899 23.29487223952357 83.59409637570171 H 0.0 **** 0.06
7759 H 23.95669341914701 22.911446565748 82.50132148109732 H 0.0 **** 0.06
7760 H 22.370285528529866 23.36176931445756 81.83057752831283 H 0.0 **** 0.06
7761 C 97.15523227040985 76.47379116406724 86.36332047416191 C 0.0 **** -0.24
7762 H 98.14224950371697 76.16979073190656 86.71109562450036 H 0.0 **** 0.06
7763 H 96.85422257027071 75.84333641970164 85.52636476298943 H 0.0 **** 0.06
7764 H 97.18743684353322 77.5145900651497 86.04104670987296 H 0.0 **** 0.06
7765 H 96.43613811450062 76.36739588406863 87.17524317953014 H 0.0 **** 0.06
7766 C 30.733848943543634 82.72584689274083 49.577346584502706 C 0.0 **** -0.24
7767 H 31.31492262537587 83.57165289244516 49.20867126290199 H 0.0 **** 0.06
7768 H 30.205042038119373 82.2595957318925 48.746598771471994 H 0.0 **** 0.06
7769 H 30.01276330233727 83.07614260303836 50.31746643491713 H 0.0 **** 0.06
7770 H 31.403012522359347 81.99948410718805 50.037960353728906 H 0.0 **** 0.06
7771 C 56.568104636086375 20.173445182325707 36.10034963734424 C 0.0 **** -0.24
7772 H 56.53168968071361 20.817820247469115 35.22145053353074 H 0.0 **** 0.06
7773 H 55.56237538680263 20.05308317447833 36.503569863078155 H 0.0 **** 0.06
7774 H 57.21152746844393 20.624437485951972 36.85479300060203 H 0.0 **** 0.06
7775 H 56.96591981157737 19.198449978639303 35.818725230822224 H 0.0 **** 0.06
7776 C 55.8011344660425 33.71915568631982 36.09505326744346 C 0.0 **** -0.24
7777 H 56.50475880695541 34.540654532494415 35.96253433850637 H 0.0 **** 0.06
7778 H 55.054583389986135 33.74852471110809 35.30102125073654 H 0.0 **** 0.06
7779 H 55.307434959117785 33.81650267920075 37.062892775657474 H 0.0 **** 0.06
7780 H 56.33790457544467 32.77145354890553 36.055412904629975 H 0.0 **** 0.06
7781 C 66.92918469531998 77.91816551081388 50.70129437711363 C 0.0 **** -0.24
7782 H 67.5447314284807 77.18155311771204 51.215555165814685 H 0.0 **** 0.06
7783 H 66.55375049510621 77.49183118719236 49.770670337902544 H 0.0 **** 0.06
7784 H 67.52878756949127 78.80181688007559 50.47973043335516 H 0.0 **** 0.06
7785 H 66.08992738689085 78.1991192871879 51.338201788406444 H 0.0 **** 0.06
7786 C 27.495194670074056 56.86394768180678 57.61653743001394 C 0.0 **** -0.24
7787 H 26.534436859238838 57.159652361127 57.19552078247292 H 0.0 **** 0.06
7788 H 27.655995003178475 55.79910978532981 57.442582078584074 H 0.0 **** 0.06
7789 H 27.49688115083046 57.06161854957268 58.68897591383076 H 0.0 **** 0.06
7790 H 28.292674224106577 57.4345976804791 57.14038008726099 H 0.0 **** 0.06
7791 C 9.162751696072803 44.914292188027616 49.77539304650763 C 0.0 **** -0.24
7792 H 9.81296667687647 45.58098853535603 49.210410532099 H 0.0 **** 0.06
7793 H 8.357497070071787 45.4910840116147 50.23041067909755 H 0.0 **** 0.06
7794 H 9.73976405474096 44.41843880012914 50.555238520313196 H 0.0 **** 0.06
7795 H 8.74017118704495 44.16559776216184 49.10479982510294 H 0.0 **** 0.06
7796 C 32.268610497302944 31.974156346660664 48.26326238409013 C 0.0 **** -0.24
7797 H 32.24430280563212 31.467721365947916 47.29898983463319 H 0.0 **** 0.06
7798 H 31.387250185505877 32.60967439239222 48.361795581042365 H 0.0 **** 0.06
7799 H 33.1673378455842 32.586600792466484 48.3293363663193 H 0.0 **** 0.06
7800 H 32.27391685682579 31.233718844620306 49.062552046075645 H 0.0 **** 0.06
7801 C 32.371030257459665 34.81480157335568 92.86670914956537 C 0.0 **** -0.24
7802 H 32.043786123676824 35.84274427340051 92.71043391370387 H 0.0 **** 0.06
7803 H 33.45305374199022 34.7553383946572 92.74228143406326 H 0.0 **** 0.06
7804 H 31.884118052194765 34.16420506088781 92.14071981642296 H 0.0 **** 0.06
7805 H 32.103486128497565 34.4991090553674 93.8758708378449 H 0.0 **** 0.06
7806 C 49.623191653842184 47.13071284743029 106.02024222026067 C 0.0 **** -0.24
7807 H 50.05206781343884 46.19769327477076 105.65566500739298 H 0.0 **** 0.06
7808 H 49.1804537322613 46.967160373295485 107.00286401663155 H 0.0 **** 0.06
7809 H 48.853467344636385 47.47164932408759 105.32689329180393 H 0.0 **** 0.06
7810 H 50.40514234664994 47.88594883752501 106.0951391072703 H 0.0 **** 0.06
7811 C 66.01175622819629 83.71872773670903 99.70021136495932 C 0.0 **** -0.24
7812 H 66.15999651900995 83.32638586182834 98.69353286985869 H 0.0 **** 0.06
7813 H 66.96756599350093 83.74162934359767 100.22477988295452 H 0.0 **** 0.06
7814 H 65.31632686772436 83.07669872744403 100.24138199261782 H 0.0 **** 0.06
7815 H 65.60480691253649 84.72700848146026 99.64094973305727 H 0.0 **** 0.06
7816 C 70.02570296180636 69.56256316561976 2.3620817121596254 C 0.0 **** -0.24
7817 H 70.81948607893982 68.82300233337878 2.2519224868032133 H 0.0 **** 0.06
7818 H 69.07382316953134 69.05383117801867 2.5100561141667272 H 0.0 **** 0.06
7819 H 69.97499219209762 70.17614247178992 1.4624747267679883 H 0.0 **** 0.06
7820 H 70.23810470216766 70.19714909931938 3.2228413112411296 H 0.0 **** 0.06
7821 C 4.314267200816531 2.358079166183771 29.951419929668077 C 0.0 **** -0.24
7822 H 3.2571689285493477 2.182590653823951 30.151317137126455 H 0.0 **** 0.06
7823 H 4.833051774310533 2.5565751063320477 30.88927908334861 H 0.0 **** 0.06
7824 H 4.419867064855481 3.216780513711015 29.288339593375667 H 0.0 **** 0.06
7825 H 4.744865458426304 1.4773888693544848 29.47604581293561 H 0.0 **** 0.06
7826 C 101.25373716586002 33.29531710451651 28.620067901679306 C 0.0 **** -0.24
7827 H 100.48670748451218 32.6749510900292 28.157661927347718 H 0.0 **** 0.06
7828 H 102.21918146578862 33.08451687740808 28.158548127949217 H 0.0 **** 0.06
7829 H 101.30458613386864 33.07546838966367 29.686359502590534 H 0.0 **** 0.06
7830 H 101.00464415071755 34.34756981582362 28.47836459496773 H 0.0 **** 0.06
7831 C 91.90324100427293 50.50250447423434 70.25418341675427 C 0.0 **** -0.24
7832 H 91.41485850200245 50.615445890848406 71.2214871819245 H 0.0 **** 0.06
7833 H 91.5338076681591 49.601902709935814 69.76387297527752 H 0.0 **** 0.06
7834 H 92.98098336586396 50.42263421936596 70.39801676544653 H 0.0 **** 0.06
7835 H 91.68357004751962 51.37101219775113 69.63236678502435 H 0.0 **** 0.06
7836 C 16.485744733048698 2.161683633156243 45.58335796974286 C 0.0 **** -0.24
7837 H 17.450454642395847 2.3857851102210175 46.0397878517958 H 0.0 **** 0.06
7838 H 16.595926771449008 1.3249156788896101 44.893862390534224 H 0.0 **** 0.06
7839 H 16.128808286552967 3.036250983140495 45.040090859962774 H 0.0 **** 0.06
7840 H 15.768181381236602 1.9000065364852112 46.36188084307044 H 0.0 **** 0.06
7841 C 32.86773202995755 11.590987733673273 12.869753253098509 C 0.0 **** -0.24
7842 H 33.451852046293595 11.761137847647717 11.965755149247343 H 0.0 **** 0.06
7843 H 33.14385362136966 10.63017192662494 13.304372310424355 H 0.0 **** 0.06
7844 H 31.806511017061553 11.586703843364546 12.621295076848867 H 0.0 **** 0.06
7845 H 33.069134192110084 12.386196860302846 13.5867221652355 H 0.0 **** 0.06
7846 C 56.59815918373225 53.14986342080613 14.295253331553084 C 0.0 **** -0.24
7847 H 57.474949377133505 53.37913613479549 14.900544024489406 H 0.0 **** 0.06
7848 H 56.611700721990225 53.759842202995856 13.39176487149021 H 0.0 **** 0.06
7849 H 55.69550465354219 53.367508981835044 14.866423259386067 H 0.0 **** 0.06
7850 H 56.61026833064109 52.09532161220835 14.02291949227677 H 0.0 **** 0.06
7851 C 37.25282243571681 107.86684032090997 96.20265219979831 C 0.0 **** -0.24
7852 H 37.94173939978879 108.41442802131083 95.5597929837154 H 0.0 **** 0.06
7853 H 37.81882369028747 107.22730025176575 96.87988475857938 H 0.0 **** 0.06
7854 H 36.59253286439889 107.25403548427842 95.58953904244618 H 0.0 **** 0.06
7855 H 36.65790827515613 108.5737084915336 96.78207212888552 H 0.0 **** 0.06
7856 C 40.36040833550868 56.59806496134712 97.4102831395014 C 0.0 **** -0.24
7857 H 39.664999809467474 56.150267287474264 98.11895866541785 H 0.0 **** 0.06
7858 H 41.25124577226717 56.9367809865102 97.94058593052158 H 0.0 **** 0.06
7859 H 39.88436089937221 57.447109910404066 96.9204726228825 H 0.0 **** 0.06
7860 H 40.642966279779614 55.85825728055454 96.66157862662918 H 0.0 **** 0.06
7861 C 73.41171510301245 59.19862150755057 52.12840058079507 C 0.0 **** -0.24
7862 H 72.68540856616119 58.84696812853548 52.86185244011256 H 0.0 **** 0.06
7863 H 73.0673723088102 58.94670776874574 51.125317146138 H 0.0 **** 0.06
7864 H 74.37423288252808 58.72138513048964 52.31400730138856 H 0.0 **** 0.06
7865 H 73.51939096391868 60.279966579376094 52.21550756725895 H 0.0 **** 0.06
7866 C 89.90960264594992 65.73829410616632 70.0656797767524 C 0.0 **** -0.24
7867 H 89.25899554561124 65.82965171890613 69.1959533549377 H 0.0 **** 0.06
7868 H 89.32443908219625 65.88893016226947 70.97359734512425 H 0.0 **** 0.06
7869 H 90.69653731534544 66.49042506951427 70.01125832137376 H 0.0 **** 0.06
7870 H 90.35705026282426 64.74404773167926 70.08166990870752 H 0.0 **** 0.06
7871 C 58.32917074692523 16.60155613649404 74.37351622090273 C 0.0 **** -0.24
7872 H 57.3857842590412 16.058769878377763 74.30776733340595 H 0.0 **** 0.06
7873 H 58.893573928175215 16.245696666457516 75.23511120794001 H 0.0 **** 0.06
7874 H 58.12709535950228 17.667635661305972 74.48617918970355 H 0.0 **** 0.06
7875 H 58.90734004414787 16.435735277797562 73.46478273760873 H 0.0 **** 0.06
7876 C 44.4456505573562 79.5587408753106 78.32158102670351 C 0.0 **** -0.24
7877 H 44.233739269527746 79.85257407010579 77.29371746304975 H 0.0 **** 0.06
7878 H 44.643519358468154 80.44827500877597 78.9202836776065 H 0.0 **** 0.06
7879 H 45.31898075747671 78.90630523756525 78.33966398367454 H 0.0 **** 0.06
7880 H 43.58724709364719 79.02706197090401 78.73184665682842 H 0.0 **** 0.06
7881 C 92.30788389778888 56.1285130989846 101.43203381172725 C 0.0 **** -0.24
7882 H 93.38617092799342 56.22878696544462 101.30726159288258 H 0.0 **** 0.06
7883 H 92.09949448866689 55.402396467914826 102.21838258983655 H 0.0 **** 0.06
7884 H 91.86501685994784 55.78880740193746 100.49572099274727 H 0.0 **** 0.06
7885 H 91.88295809193664 57.09404392745697 101.70551711554083 H 0.0 **** 0.06
7886 C 2.723799591681427 100.1909514057308 4.76334451841984 C 0.0 **** -0.24
7887 H 2.768109073510061 100.79175131537636 5.672607450701992 H 0.0 **** 0.06
7888 H 2.7692386670951237 99.13301481980699 5.024898362421014 H 0.0 **** 0.06
7889 H 3.5669481853904585 100.4436225319738 4.121207022472538 H 0.0 **** 0.06
7890 H 1.7912410272672332 100.39654583704191 4.237765485046822 H 0.0 **** 0.06
7891 C 51.188293147415095 59.562596746981555 0.913472846144316 C 0.0 **** -0.24
7892 H 51.89095576542252 59.50835987983508 0.08133732741384847 H 0.0 **** 0.06
7893 H 51.04341991983836 60.60383914971678 1.1996857388238595 H 0.0 **** 0.06
7894 H 51.585339215110025 59.00351401096335 1.7603540327760925 H 0.0 **** 0.06
7895 H 50.233511075526565 59.13210978588384 0.6106642258246779 H 0.0 **** 0.06
7896 C 63.93022825352459 8.16010021237156 87.80380182918111 C 0.0 **** -0.24
7897 H 64.1332420832202 7.141973365813087 88.13499050939066 H 0.0 **** 0.06
7898 H 63.56590109088938 8.749943036728268 88.64544490644565 H 0.0 **** 0.06
7899 H 63.17586534276471 8.14330833675605 87.01767050572147 H 0.0 **** 0.06
7900 H 64.84717017924383 8.606698029645386 87.41814161529908 H 0.0 **** 0.06
7901 C 5.822838620877775 7.264690015363291 50.82112164243978 C 0.0 **** -0.24
7902 H 6.715503437904147 7.848238740455322 50.59604327805539 H 0.0 **** 0.06
7903 H 5.194045642277558 7.2058137590808595 49.93304461235266 H 0.0 **** 0.06
7904 H 5.268878553202086 7.7433303394675725 51.62834250484394 H 0.0 **** 0.06
7905 H 6.114776505489658 6.259121133731039 51.12635668565508 H 0.0 **** 0.06
7906 C 27.840557157972995 96.70654134300662 39.18772586955931 C 0.0 **** -0.24
7907 H 28.747506827018185 96.56508296416024 39.775096844295 H 0.0 **** 0.06
7908 H 27.519316407916705 97.74617115627882 39.26220518239864 H 0.0 **** 0.06
7909 H 27.054873506997495 96.05527114370412 39.56926372866201 H 0.0 **** 0.06
7910 H 28.040453094215138 96.46208150151014 38.144521259443536 H 0.0 **** 0.06
7911 C 27.348443578880662 80.68104400116147 56.20738132100636 C 0.0 **** -0.24
7912 H 26.902358059537796 79.8342298195475 55.68671322234194 H 0.0 **** 0.06
7913 H 26.960813025946774 80.7271346924288 57.224714122282435 H 0.0 **** 0.06
7914 H 27.1001126625736 81.60299252529786 55.68100828877038 H 0.0 **** 0.06
7915 H 28.432050533664665 80.56070319047289 56.235753648125595 H 0.0 **** 0.06
7916 C 75.60066673091215 78.79699153746793 109.50324970216208 C 0.0 **** -0.24
7917 H 75.88412887289529 79.56173755472278 110.22625495638604 H 0.0 **** 0.06
7918 H 76.30032239219202 78.80971643355691 108.66730717143007 H 0.0 **** 0.06
7919 H 74.59344439096593 78.99801028217536 109.13785470877065 H 0.0 **** 0.06
7920 H 75.62457494710341 77.81809185522297 109.98292116492199 H 0.0 **** 0.06
7921 C 30.558679962047066 24.71788000638871 56.95053755002283 C 0.0 **** -0.24
7922 H 30.619365060925887 25.474470488563043 56.16838154681281 H 0.0 **** 0.06
7923 H 30.468902013992242 25.205788703907018 57.921147611290735 H 0.0 **** 0.06
7924 H 31.459629924370518 24.103925097534955 56.93343666403484 H 0.0 **** 0.06
7925 H 29.68642612620041 24.086579092579854 56.77866461640912 H 0.0 **** 0.06
7926 C 81.61861116387826 14.305258794056172 30.874274514642707 C 0.0 **** -0.24
7927 H 82.57845752499466 14.78866258683432 31.055543890563968 H 0.0 **** 0.06
7928 H 81.389505708575 14.339313592956557 29.809175541082084 H 0.0 **** 0.06
7929 H 80.83938022891246 14.824516506272687 31.431771975048093 H 0.0 **** 0.06
7930 H 81.66816283134467 13.266167777816776 31.202101346256825 H 0.0 **** 0.06
7931 C 9.147144793526621 58.205446266813034 54.74899689866851 C 0.0 **** -0.24
7932 H 8.430163705626455 57.50493825611703 54.31926375317494 H 0.0 **** 0.06
7933 H 9.775660261244752 57.68264757059876 55.47097873222998 H 0.0 **** 0.06
7934 H 8.612341075731976 59.012139884696936 55.24895008175085 H 0.0 **** 0.06
7935 H 9.770161620157268 58.61894549843368 53.95630449154541 H 0.0 **** 0.06
7936 C 8.750546280908766 106.89488786316454 57.45261817021616 C 0.0 **** -0.24
7937 H 8.243882675012218 106.44618123893643 56.59856536919725 H 0.0 **** 0.06
7938 H 9.334742624437018 107.75174554127967 57.119670234481625 H 0.0 **** 0.06
7939 H 9.412036715931835 106.15866992930857 57.90928700326422 H 0.0 **** 0.06
7940 H 8.00984329407134 107.22055455405923 58.18359641952384 H 0.0 **** 0.06
7941 C 11.306112814000386 8.817425838373058 94.08233321871988 C 0.0 **** -0.24
7942 H 12.2027265060334 8.572863074043537 93.51235880750755 H 0.0 **** 0.06
7943 H 11.277686820042618 8.215053895214133 94.99020592890925 H 0.0 **** 0.06
7944 H 10.42369766250576 8.605839039407956 93.47871548019532 H 0.0 **** 0.06
7945 H 11.321246623766768 9.874735070270495 94.3472106029176 H 0.0 **** 0.06
7946 C 36.24698186115009 80.7159878259649 85.44116954191094 C 0.0 **** -0.24
7947 H 36.00592290453986 79.68211500657078 85.19444008489927 H 0.0 **** 0.06
7948 H 37.03200172051004 80.7349747733866 86.19768009723356 H 0.0 **** 0.06
7949 H 35.35723684583009 81.21352040972543 85.82841629888446 H 0.0 **** 0.06
7950 H 36.5912408594302 81.2321775837766 84.54529080417524 H 0.0 **** 0.06
7951 C 24.25140288956814 64.93701644640136 83.29922785119139 C 0.0 **** -0.24
7952 H 23.760702491961553 64.06786245590712 82.86068669542463 H 0.0 **** 0.06
7953 H 25.042360432897112 64.60527602800954 83.97139025072345 H 0.0 **** 0.06
7954 H 23.521021061153903 65.52271753210246 83.85685806394427 H 0.0 **** 0.06
7955 H 24.680014596081406 65.5509109412823 82.50696436905582 H 0.0 **** 0.06
7956 C 32.39960772147882 29.797995285271696 32.386188628298186 C 0.0 **** -0.24
7957 H 31.568939191452635 29.75181999842556 33.09080520873101 H 0.0 **** 0.06
7958 H 33.05584317526642 30.627420082261693 32.650518756012275 H 0.0 **** 0.06
7959 H 32.01161117810787 29.948635837009306 31.378034352172364 H 0.0 **** 0.06
7960 H 32.959996454671675 28.86366519269754 32.42302098026835 H 0.0 **** 0.06
7961 C 88.28271568277397 29.35775088688925 61.78115140961158 C 0.0 **** -0.24
7962 H 88.80141413507117 30.296156108807253 61.97498477840999 H 0.0 **** 0.06
7963 H 87.85980389860987 29.377854558797537 60.776111414875686 H 0.0 **** 0.06
7964 H 87.48274958456255 29.227861178812617 62.50976567562081 H 0.0 **** 0.06
7965 H 88.98638739024537 28.52986128597601 61.86195208823263 H 0.0 **** 0.06
7966 C 90.40695215314355 78.630346627547 59.16644616777498 C 0.0 **** -0.24
7967 H 89.54157322834425 78.12317419829195 59.59287939734955 H 0.0 **** 0.06
7968 H 90.82690936314475 79.31425283400368 59.90507271961354 H 0.0 **** 0.06
7969 H 90.10081179984275 79.19066242020159 58.28409869297292 H 0.0 **** 0.06
7970 H 91.1588865838051 77.89215955967434 58.88587108872824 H 0.0 **** 0.06
7971 C 70.86849108321411 90.25183407821393 51.504869302255315 C 0.0 **** -0.24
7972 H 70.63597628457728 90.51644093271699 50.47266921778893 H 0.0 **** 0.06
7973 H 69.94698690035898 90.00596143048956 52.03256385835641 H 0.0 **** 0.06
7974 H 71.35357480237423 91.09719810543866 51.994813588702755 H 0.0 **** 0.06
7975 H 71.53641353082872 89.39173736981552 51.51743980570262 H 0.0 **** 0.06
7976 C 84.12578692833746 67.82187579324636 18.317877835055096 C 0.0 **** -0.24
7977 H 84.24111697530917 66.76663049094702 18.07014773779473 H 0.0 **** 0.06
7978 H 85.07371286352065 68.21449223090588 18.685920795599554 H 0.0 **** 0.06
7979 H 83.36222397483967 67.93128122292933 19.089307047843935 H 0.0 **** 0.06
7980 H 83.82427252398303 68.3734051326814 17.427482246004946 H 0.0 **** 0.06
7981 C 8.90015759086145 70.91042629283766 66.12216875319385 C 0.0 **** -0.24
7982 H 8.249889098524672 71.57819210114957 66.68668318478458 H 0.0 **** 0.06
7983 H 8.29319358917764 70.25771089906209 65.49431032505126 H 0.0 **** 0.06
7984 H 9.488633604323761 70.30684235240182 66.81279328639809 H 0.0 **** 0.06
7985 H 9.569209037328717 71.49918340571759 65.49352326120604 H 0.0 **** 0.06
7986 C 62.63650876948651 72.33000194280811 76.29818501617706 C 0.0 **** -0.24
7987 H 62.01770929114096 73.21782532774256 76.42345928881701 H 0.0 **** 0.06
7988 H 63.61756565660022 72.50447528700843 76.7425805760295 H 0.0 **** 0.06
7989 H 62.75217082723083 72.11459672047195 75.23636926065114 H 0.0 **** 0.06
7990 H 62.16043679511442 71.48296569530794 76.7919328506311 H 0.0 **** 0.06
7991 C 10.926478585658742 53.616335410748306 14.084337974439734 C 0.0 **** -0.24
7992 H 10.922819096922936 52.92727699506883 14.9295166672334 H 0.0 **** 0.06
7993 H 11.2705379512538 54.59623707023223 14.416265355939132 H 0.0 **** 0.06
7994 H 9.917489325792303 53.702208928262415 13.681870284212806 H 0.0 **** 0.06
7995 H 11.594937039356026 53.238398638877186 13.311568996562698 H 0.0 **** 0.06
7996 C 59.38585769562985 24.71196074027077 16.06302401732296 C 0.0 **** -0.24
7997 H 58.44841163186766 24.15709482431666 16.108439741002826 H 0.0 **** 0.06
7998 H 59.92591504646839 24.437267467795948 15.156138357826592 H 0.0 **** 0.06
7999 H 59.99344545489555 24.47114719114299 16.935054284761037 H 0.0 **** 0.06
8000 H 59.17368371731493 25.78082951368387 16.04984865612971 H 0.0 **** 0.06
8001 C 103.0119086127379 31.405002682305742 76.99901609937774 C 0.0 **** -0.24
8002 H 102.48302755874892 32.35329935730015 76.90246497181143 H 0.0 **** 0.06
8003 H 103.37516198199711 31.295301411087863 78.02158715327464 H 0.0 **** 0.06
8004 H 103.85551298866528 31.387820325249592 76.30981929871635 H 0.0 **** 0.06
8005 H 102.33321159298146 30.58501725764551 76.76526602049913 H 0.0 **** 0.06
8006 C 48.398614507659396 28.213003263316523 21.639953071212688 C 0.0 **** -0.24
8007 H 48.724094340197276 29.17115611606809 21.233614662530158 H 0.0 **** 0.06
8008 H 49.249944107007366 27.53509955024157 21.698325270036094 H 0.0 **** 0.06
8009 H 47.6357115001658 27.7849375490338 20.990035702221405 H 0.0 **** 0.06
8010 H 47.98451606767355 28.36428119011795 22.63642850779712 H 0.0 **** 0.06
8011 C 104.52270878079958 84.33859545156572 90.29134299880131 C 0.0 **** -0.24
8012 H 103.79616094537448 85.10046540175784 90.01081629565869 H 0.0 **** 0.06
8013 H 104.12955151959864 83.74834928798079 91.11831012935168 H 0.0 **** 0.06
8014 H 105.45227317515321 84.8189550707372 90.59625203704621 H 0.0 **** 0.06
8015 H 104.71399577844369 83.68676014648811 89.4380792915667 H 0.0 **** 0.06
8016 C 96.55101210275222 26.100008746849596 2.009083387749385 C 0.0 **** -0.24
8017 H 95.79920480737096 25.461671767486678 2.4733403862779966 H 0.0 **** 0.06
8018 H 96.14130802574515 27.100130703052514 1.8685291520817913 H 0.0 **** 0.06
8019 H 96.83450298910786 25.683477750018767 1.0428335858336197 H 0.0 **** 0.06
8020 H 97.42915056999178 26.15351194331089 2.6528311010933834 H 0.0 **** 0.06
8021 C 37.96219468223441 64.80134132022579 24.979478488314356 C 0.0 **** -0.24
8022 H 38.89859314287614 64.77204811862711 24.421431227916713 H 0.0 **** 0.06
8023 H 38.0044853722207 65.6006738887047 25.719886380348157 H 0.0 **** 0.06
8024 H 37.809923419313705 63.84707689608649 25.48424849463825 H 0.0 **** 0.06
8025 H 37.13565592508405 64.98508343590348 24.293215149352733 H 0.0 **** 0.06
8026 C 100.09892033144934 56.991947466169876 61.63780455146906 C 0.0 **** -0.24
8027 H 99.25120798233127 57.10527038844211 62.313501634432725 H 0.0 **** 0.06
8028 H 99.79151914955546 56.4209492573068 60.76116581850967 H 0.0 **** 0.06
8029 H 100.90466257838105 56.465797423167146 62.15021888857471 H 0.0 **** 0.06
8030 H 100.44893359468608 57.97636779693258 61.32681548189157 H 0.0 **** 0.06
8031 C 20.41876789733547 10.924531748678103 99.40171122222881 C 0.0 **** -0.24
8032 H 19.833387407741384 11.843065855393284 99.34893155784135 H 0.0 **** 0.06
8033 H 21.268789853892685 10.997004621172705 98.72294820055774 H 0.0 **** 0.06
8034 H 19.793301352235915 10.079364808912318 99.11496867201447 H 0.0 **** 0.06
8035 H 20.778198112171907 10.781208194378186 100.42084622600626 H 0.0 **** 0.06
8036 C 41.19859523167713 52.653474256010895 17.913690457373164 C 0.0 **** -0.24
8037 H 41.05212287679501 53.67225725070796 18.27239635270766 H 0.0 **** 0.06
8038 H 42.10895199081068 52.60686448649818 17.315071194813925 H 0.0 **** 0.06
8039 H 40.34553531974166 52.35781220350239 17.302834001953926 H 0.0 **** 0.06
8040 H 41.28799273877087 51.97765359955952 18.76377183746193 H 0.0 **** 0.06
8041 C 97.56248851027999 11.742101412864699 18.369727815172865 C 0.0 **** -0.24
8042 H 97.14249918034454 11.32958870875298 17.45262418310773 H 0.0 **** 0.06
8043 H 98.64489132483936 11.618500634940588 18.36096419991466 H 0.0 **** 0.06
8044 H 97.1426686611913 11.219533796315545 19.22944885178231 H 0.0 **** 0.06
8045 H 97.31847981090925 12.802763202218799 18.435600611005924 H 0.0 **** 0.06
8046 C 108.54323138369793 69.98096526238223 74.6431067579959 C 0.0 **** -0.24
8047 H 108.03072500230226 70.93932856487758 74.7323138275826 H 0.0 **** 0.06
8048 H 107.98584558197791 69.21981499433481 75.18879365171568 H 0.0 **** 0.06
8049 H 109.54732034222505 70.06663172446878 75.06068378468649 H 0.0 **** 0.06
8050 H 108.60921362176225 69.70117884092238 73.59181956940506 H 0.0 **** 0.06
8051 C 82.85742523267379 89.59053346493172 35.838968295066536 C 0.0 **** -0.24
8052 H 83.84877898880086 89.25373737443716 36.14265564035367 H 0.0 **** 0.06
8053 H 82.84232369706694 90.67928323296013 35.79420530739736 H 0.0 **** 0.06
8054 H 82.11903220671678 89.24490776838952 36.56201355602337 H 0.0 **** 0.06
8055 H 82.6209407110432 89.18291842580877 34.85579285584663 H 0.0 **** 0.06
8056 C 94.57056659741177 100.10493225523669 12.408333532660805 C 0.0 **** -0.24
8057 H 94.51706670420256 99.02196980977334 12.29721664721346 H 0.0 **** 0.06
8058 H 94.198761228638 100.38709561310498 13.39369057674108 H 0.0 **** 0.06
8059 H 93.96086982181353 100.5789511592011 11.639878116496106 H 0.0 **** 0.06
8060 H 95.60515420915767 100.4301361546107 12.303135073237826 H 0.0 **** 0.06
8061 C 81.76683049614638 83.17172105232348 42.57709160532386 C 0.0 **** -0.24
8062 H 81.8052525135414 83.96193618360391 41.827611361998464 H 0.0 **** 0.06
8063 H 82.77052406753552 82.98573212967932 42.9600853744565 H 0.0 **** 0.06
8064 H 81.37497197599805 82.2607985681796 42.12502084592916 H 0.0 **** 0.06
8065 H 81.11612713977297 83.47916288323073 43.3961438378488 H 0.0 **** 0.06
8066 C 83.18617987390508 51.72034256939515 47.12054864068807 C 0.0 **** -0.24
8067 H 82.67574988937969 51.84888885720557 48.07538997825563 H 0.0 **** 0.06
8068 H 84.09429923328054 52.32441447831387 47.11115188216377 H 0.0 **** 0.06
8069 H 82.52882229068354 52.03880147744867 46.31203596196306 H 0.0 **** 0.06
8070 H 83.44615916718266 50.67081088038323 46.986169261122456 H 0.0 **** 0.06
8071 C 48.72284601081509 75.46499776221413 15.66474160931378 C 0.0 **** -0.24
8072 H 48.46989822134327 76.14580650880049 14.85302697746306 H 0.0 **** 0.06
8073 H 49.01454613414873 76.03999222063942 16.54416887951544 H 0.0 **** 0.06
8074 H 49.549475016082454 74.82525985458824 15.357632995393843 H 0.0 **** 0.06
8075 H 47.85647616219558 74.84899618160722 15.904274839047005 H 0.0 **** 0.06
8076 C 18.017356449553517 11.915779844820946 90.94519804939341 C 0.0 **** -0.24
8077 H 17.000033936640193 11.53360869685028 91.03214633500994 H 0.0 **** 0.06
8078 H 18.71361876893843 11.080407426769327 90.87475982329073 H 0.0 **** 0.06
8079 H 18.255667807877245 12.514413538254004 91.82512891419357 H 0.0 **** 0.06
8080 H 18.0980428989738 12.534205314835361 90.05130907806335 H 0.0 **** 0.06
8081 C 9.404770280852148 102.01403820088552 95.47574787872688 C 0.0 **** -0.24
8082 H 9.646022838153783 101.92401395544785 96.53511029292832 H 0.0 **** 0.06
8083 H 9.53353444596425 103.04875834667943 95.16025016601336 H 0.0 **** 0.06
8084 H 8.370901499593685 101.70937182970984 95.31157225215492 H 0.0 **** 0.06
8085 H 10.06863388231082 101.37157213895806 94.89631074074734 H 0.0 **** 0.06
8086 C 3.335447693473384 75.8135666241046 52.46974976594015 C 0.0 **** -0.24
8087 H 2.407389715898944 75.44953390367857 52.90941029750718 H 0.0 **** 0.06
8088 H 3.4782910976667267 76.86124567188477 52.73684394613315 H 0.0 **** 0.06
8089 H 3.2847969671339 75.71906620510376 51.385411720149136 H 0.0 **** 0.06
8090 H 4.171863021939544 75.22496845301868 52.846702622524276 H 0.0 **** 0.06
8091 C 92.256353649438 82.14141852011886 5.1242712831448785 C 0.0 **** -0.24
8092 H 92.97724388810254 81.36356540041743 4.874084126963226 H 0.0 **** 0.06
8093 H 92.27385116066249 82.32092134377046 6.199280790181831 H 0.0 **** 0.06
8094 H 91.25867775710206 81.82146620768441 4.824002762789348 H 0.0 **** 0.06
8095 H 92.517081225062 83.05958401354263 4.598011733054648 H 0.0 **** 0.06
8096 C 86.78200470847742 83.1481683723487 81.81538808361273 C 0.0 **** -0.24
8097 H 87.8153917404241 83.00817896595795 82.13511476583069 H 0.0 **** 0.06
8098 H 86.16398982392252 83.38727374870051 82.68088105829648 H 0.0 **** 0.06
8099 H 86.41899456521946 82.23163507165519 81.3509333716423 H 0.0 **** 0.06
8100 H 86.73241468718393 83.96553367975255 81.09614428961716 H 0.0 **** 0.06
8101 C 7.306480835305422 23.60755419441631 87.86491240115771 C 0.0 **** -0.24
8102 H 7.098073756206247 24.28255494061429 87.0347609988741 H 0.0 **** 0.06
8103 H 6.495387566319039 22.885555374612267 87.95746107796674 H 0.0 **** 0.06
8104 H 7.390168979401949 24.182626431351196 88.7872990339257 H 0.0 **** 0.06
8105 H 8.242881289418733 23.082090984376066 87.67844404137702 H 0.0 **** 0.06
8106 C 74.44125102200543 15.026098400511756 36.25504653173234 C 0.0 **** -0.24
8107 H 74.9313036895561 14.630512784645532 35.365280114156754 H 0.0 **** 0.06
8108 H 74.50110962694896 14.292202187453853 37.05932646203767 H 0.0 **** 0.06
8109 H 73.39569345457453 15.236125921385124 36.030334133539874 H 0.0 **** 0.06
8110 H 74.937955023929 15.945789356139954 36.56433692781873 H 0.0 **** 0.06
8111 C 88.70983633183977 40.19514882903439 79.72101943965384 C 0.0 **** -0.24
8112 H 88.35263086933304 41.223779534145386 79.76565095211998 H 0.0 **** 0.06
8113 H 89.77296782959905 40.189595100683846 79.47752506485433 H 0.0 **** 0.06
8114 H 88.1584954710377 39.65202471780637 78.95312143576595 H 0.0 **** 0.06
8115 H 88.55539796531264 39.7143807037181 80.68722008407462 H 0.0 **** 0.06
8116 C 78.11149086993157 6.280107880234453 55.7589155829246 C 0.0 **** -0.24
8117 H 77.12629502384686 6.634152670395494 56.06651340028694 H 0.0 **** 0.06
8118 H 78.30955612371565 5.313337280546492 56.221986459172186 H 0.0 **** 0.06
8119 H 78.86948591108336 6.997415685761908 56.07348495523661 H 0.0 **** 0.06
8120 H 78.13709083287773 6.1765335945540585 54.67437381408182 H 0.0 **** 0.06
8121 C 4.030180573026911 35.42594081741231 59.815733556403984 C 0.0 **** -0.24
8122 H 4.448345757603477 35.96810840082196 60.66392991355997 H 0.0 **** 0.06
8123 H 3.3668064768042143 36.08374617241503 59.2550279828489 H 0.0 **** 0.06
8124 H 3.4676163310498964 34.56485208043887 60.17725195297368 H 0.0 **** 0.06
8125 H 4.83823054089504 35.085096426805876 59.167764222391725 H 0.0 **** 0.06
8126 C 96.78039619963175 104.35880266886032 101.55749022779237 C 0.0 **** -0.24
8127 H 96.32221288102701 104.08704063063806 102.50912533041601 H 0.0 **** 0.06
8128 H 96.12144211524154 104.06692010897653 100.73984486324598 H 0.0 **** 0.06
8129 H 97.73674532340017 103.84535041303997 101.45558329219303 H 0.0 **** 0.06
8130 H 96.94124102384652 105.436688020326 101.52862854612941 H 0.0 **** 0.06
8131 C 11.37230204062378 88.94021149064585 44.257471686513114 C 0.0 **** -0.24
8132 H 11.191473714991787 88.01751040913948 44.80831437231953 H 0.0 **** 0.06
8133 H 11.854768226606495 88.7076672220067 43.30717147293288 H 0.0 **** 0.06
8134 H 12.020186687188186 89.59247620870974 44.84376182555205 H 0.0 **** 0.06
8135 H 10.424091376993672 89.4435263792086 44.07022988226986 H 0.0 **** 0.06
8136 C 16.219385583584767 48.61327986937832 52.70821801105254 C 0.0 **** -0.24
8137 H 15.40978130376277 49.1236321088052 53.22839325631266 H 0.0 **** 0.06
8138 H 17.157369509095133 49.139287896866136 52.89012361137279 H 0.0 **** 0.06
8139 H 16.01153129114101 48.598970667042124 51.63799292387299 H 0.0 **** 0.06
8140 H 16.299694952718994 47.58975000508099 53.07602087517616 H 0.0 **** 0.06
8141 C 86.03714143560254 76.93157540151958 67.92017998909495 C 0.0 **** -0.24
8142 H 85.80982448005761 76.38470326788676 67.00557969849194 H 0.0 **** 0.06
8143 H 85.50234074811652 76.47974684291023 68.75659383593947 H 0.0 **** 0.06
8144 H 85.72634602994358 77.97072058619133 67.80843293529993 H 0.0 **** 0.06
8145 H 87.1092257066654 76.89166919580288 68.10996043565764 H 0.0 **** 0.06
8146 C 67.86707647455289 71.23105217366992 11.696505711318427 C 0.0 **** -0.24
8147 H 68.33318107676705 72.15382189173664 11.351403700059247 H 0.0 **** 0.06
8148 H 68.54150565755693 70.7172908112347 12.38212546119901 H 0.0 **** 0.06
8149 H 67.65791612926819 70.58750133021238 10.841839028935228 H 0.0 **** 0.06
8150 H 66.93436409958466 71.4652849911339 12.210988505844835 H 0.0 **** 0.06
8151 C 44.2755441274292 11.687848747636213 14.787299666572949 C 0.0 **** -0.24
8152 H 45.03385656292505 11.017279391715094 14.383033845783643 H 0.0 **** 0.06
8153 H 43.305507124771964 11.442851611932902 14.354599439663389 H 0.0 **** 0.06
8154 H 44.53267546353844 12.718411433168193 14.542138700472265 H 0.0 **** 0.06
8155 H 44.23058248687488 11.572566878341256 15.870275385169634 H 0.0 **** 0.06
8156 C 37.895905068827574 105.37353132564434 92.97352914985065 C 0.0 **** -0.24
8157 H 37.25691874448819 104.50126685850016 92.83303331749585 H 0.0 **** 0.06
8158 H 37.824381476940005 105.71391592667267 94.00648391947783 H 0.0 **** 0.06
8159 H 37.57434783524124 106.17000877625316 92.30373187054079 H 0.0 **** 0.06
8160 H 38.928817526350485 105.10548871982787 92.7496767036596 H 0.0 **** 0.06
8161 C 97.32568197883593 75.94079912314317 101.42490033105625 C 0.0 **** -0.24
8162 H 96.5780202797586 76.25718558278183 100.69780650049273 H 0.0 **** 0.06
8163 H 98.24649569179185 76.50250386530635 101.26715762464238 H 0.0 **** 0.06
8164 H 97.52379662358645 74.87557723438803 101.30119974341787 H 0.0 **** 0.06
8165 H 96.95470614899598 76.1263347512564 102.4328280670013 H 0.0 **** 0.06
8166 C 34.145299275418324 65.96599861774955 49.28628153834392 C 0.0 **** -0.24
8167 H 34.52226382934927 66.39364299518921 48.35643587975485 H 0.0 **** 0.06
8168 H 33.057487089387934 65.90829505188488 49.2430746984256 H 0.0 **** 0.06
8169 H 34.44346813774746 66.59761201581024 50.1228296158514 H 0.0 **** 0.06
8170 H 34.5581116493135 64.9666631941849 49.420324316940956 H 0.0 **** 0.06
8171 C 50.02097935628046 99.06031893338186 39.23036248802346 C 0.0 **** -0.24
8172 H 50.86855707825282 98.83841370412044 38.582274596415814 H 0.0 **** 0.06
8173 H 49.11019139119949 99.11094722078933 38.63222035593867 H 0.0 **** 0.06
8174 H 50.18360125361602 100.01729103025227 39.72653625180956 H 0.0 **** 0.06
8175 H 49.920804049949226 98.27472477106853 39.97923268931805 H 0.0 **** 0.06
8176 C 10.056375690249771 66.66033975784228 10.05740702482278 C 0.0 **** -0.24
8177 H 9.53861501355755 66.56322352663744 11.011703198407318 H 0.0 **** 0.06
8178 H 11.101294976531891 66.91489277804124 10.236993628300269 H 0.0 **** 0.06
8179 H 9.585713913750105 67.44721099683238 9.468122712361279 H 0.0 **** 0.06
8180 H 9.999739103445052 65.71676476822375 9.516475141368915 H 0.0 **** 0.06
8181 C 68.22659523287847 9.504953129679576 98.18554997303144 C 0.0 **** -0.24
8182 H 69.1197152562832 8.879162478129063 98.18159946231509 H 0.0 **** 0.06
8183 H 68.49652379607265 10.520531416599711 98.47584327034156 H 0.0 **** 0.06
8184 H 67.50531210237337 9.103019152377465 98.89576507629127 H 0.0 **** 0.06
8185 H 67.78787877194483 9.516629314341827 97.18777424670881 H 0.0 **** 0.06
8186 C 31.85811685546104 76.95744731483592 78.73666497384494 C 0.0 **** -0.24
8187 H 31.66942537158242 77.85298512673603 79.32961561953817 H 0.0 **** 0.06
8188 H 32.705913625327845 76.4166683218968 79.15544594958257 H 0.0 **** 0.06
8189 H 32.08097950409897 77.24310196894487 77.70883935565212 H 0.0 **** 0.06
8190 H 30.974233355456768 76.31855172515458 78.75292309427147 H 0.0 **** 0.06
8191 C 21.485033242662936 13.147436218351814 73.23805423391897 C 0.0 **** -0.24
8192 H 21.597089255353524 12.922787075538466 74.2984768134208 H 0.0 **** 0.06
8193 H 21.777023583881714 12.276570241306473 72.64966317215945 H 0.0 **** 0.06
8194 H 22.121368556193417 13.99225124066028 72.97631626844253 H 0.0 **** 0.06
8195 H 20.44500807760963 13.395931201594351 73.02765760560565 H 0.0 **** 0.06
8196 C 5.071708069763929 84.75491600709461 102.97831068370793 C 0.0 **** -0.24
8197 H 5.101344685442001 84.90549304400227 104.05744741720123 H 0.0 **** 0.06
8198 H 4.959314432457319 85.71828601526639 102.48022455086456 H 0.0 **** 0.06
8199 H 4.227794742105388 84.11334160425099 102.7239281667604 H 0.0 **** 0.06
8200 H 5.9986269892542055 84.28305870124893 102.65246277730668 H 0.0 **** 0.06
8201 C 86.08249779475354 51.09970027615047 83.02157694379281 C 0.0 **** -0.24
8202 H 87.12496002511028 50.78692106874558 82.96240324258792 H 0.0 **** 0.06
8203 H 85.5381720666809 50.42932131376187 83.68726564612336 H 0.0 **** 0.06
8204 H 85.63568215615494 51.064476693330434 82.02683423264796 H 0.0 **** 0.06
8205 H 86.02956703685102 52.118065172956776 83.40657841752261 H 0.0 **** 0.06
8206 C 76.19879988786053 7.834043819064391 41.25433530766557 C 0.0 **** -0.24
8207 H 77.24105631875074 7.671186704366676 41.527779873421565 H 0.0 **** 0.06
8208 H 75.70995100458117 6.871828803098367 41.09744693267555 H 0.0 **** 0.06
8209 H 76.1522615788121 8.419515620350182 40.33627550411933 H 0.0 **** 0.06
8210 H 75.69372876904396 8.37291870425446 42.055348314395786 H 0.0 **** 0.06
8211 C 71.64781758990156 65.69590730613582 83.91454320724381 C 0.0 **** -0.24
8212 H 72.05323235830235 66.51030021570652 83.31374046054127 H 0.0 **** 0.06
8213 H 72.0370854614215 64.74624757829724 83.54854354738042 H 0.0 **** 0.06
8214 H 70.5603859725488 65.69631603893482 83.84062320062739 H 0.0 **** 0.06
8215 H 71.94084447276029 65.8327263088853 84.95554449347424 H 0.0 **** 0.06
8216 C 28.04659688425489 65.34319289529702 11.323319298582192 C 0.0 **** -0.24
8217 H 27.476837426997726 65.68322634712354 12.188688772215826 H 0.0 **** 0.06
8218 H 27.49399314920641 64.55428624094496 10.812090078488765 H 0.0 **** 0.06
8219 H 29.01070007449033 64.95525048663997 11.653368734757493 H 0.0 **** 0.06
8220 H 28.20510352605484 66.17800815151473 10.641566460179519 H 0.0 **** 0.06
8221 C 81.46397825474922 28.0222501789047 12.841880411424597 C 0.0 **** -0.24
8222 H 82.04693702417687 27.215688999056454 13.286204600437713 H 0.0 **** 0.06
8223 H 81.96497385199055 28.973570481585256 13.022193964053642 H 0.0 **** 0.06
8224 H 80.47112104313935 28.04264598497076 13.291594151154655 H 0.0 **** 0.06
8225 H 81.37389077987838 27.857517498386727 11.768424670704349 H 0.0 **** 0.06
8226 C 53.895922720076044 65.1369187652821 64.45354708569349 C 0.0 **** -0.24
8227 H 53.07764671529054 65.68132824837414 63.983289168837814 H 0.0 **** 0.06
8228 H 54.81559214281248 65.71441410030633 64.36401991178295 H 0.0 **** 0.06
8229 H 54.02128571940381 64.1732969352769 63.95941859280913 H 0.0 **** 0.06
8230 H 53.66801706519607 64.97648289358831 65.50767195704555 H 0.0 **** 0.06
8231 C 15.993533025248894 43.805071425423606 84.69171929243676 C 0.0 **** -0.24
8232 H 14.962692627819251 44.03690414560359 84.42335844814819 H 0.0 **** 0.06
8233 H 16.58538501415336 44.72048812075011 84.68269858675558 H 0.0 **** 0.06
8234 H 16.406479338944067 43.097551403357386 83.97271955523556 H 0.0 **** 0.06
8235 H 16.019147213915474 43.36579071345922 85.68937167375873 H 0.0 **** 0.06
8236 C 108.86185682650648 19.540651860095437 65.25368495504233 C 0.0 **** -0.24
8237 H 109.2376076573816 18.73137204432038 64.6280562088732 H 0.0 **** 0.06
8238 H 108.31070153723971 19.122460468619977 66.09668716756102 H 0.0 **** 0.06
8239 H 108.19985111504383 20.1764410842147 64.66598660364087 H 0.0 **** 0.06
8240 H 109.69854117977218 20.132081622317003 65.62464985918649 H 0.0 **** 0.06
8241 C 81.97930619818197 13.136078535259823 27.371009278159164 C 0.0 **** -0.24
8242 H 81.07859969518051 13.731146661150607 27.221070716375664 H 0.0 **** 0.06
8243 H 82.12423563971242 12.47530877671997 26.51510989757614 H 0.0 **** 0.06
8244 H 81.87199624240588 12.53885474911365 28.276209896856187 H 0.0 **** 0.06
8245 H 82.83972673224477 13.797656189941819 27.470610312878676 H 0.0 **** 0.06
8246 C 67.49453833296009 57.13270777787825 47.824418235994365 C 0.0 **** -0.24
8247 H 66.93049469159578 57.4862722596582 48.68756121052362 H 0.0 **** 0.06
8248 H 68.43879593474679 56.70264178225879 48.16012159067905 H 0.0 **** 0.06
8249 H 67.69289844627312 57.96722592397948 47.15263513041168 H 0.0 **** 0.06
8250 H 66.91588897924734 56.37199449958685 47.29994791165996 H 0.0 **** 0.06
8251 C 19.757296173263583 21.85104331119328 57.01427251505021 C 0.0 **** -0.24
8252 H 20.1495590664815 21.060506891336544 56.37504890688115 H 0.0 **** 0.06
8253 H 19.48102496566629 21.43064379905246 57.982883112869445 H 0.0 **** 0.06
8254 H 18.878263032318827 22.293409493993423 56.54645020019814 H 0.0 **** 0.06
8255 H 20.519301840331813 22.617226147173497 57.15420123701881 H 0.0 **** 0.06
8256 C 104.39667984895874 18.333261569574745 29.495118312789884 C 0.0 **** -0.24
8257 H 103.70192942183309 18.684730613213105 30.258617016162702 H 0.0 **** 0.06
8258 H 104.63333211328552 19.153348413082966 28.816452570818626 H 0.0 **** 0.06
8259 H 103.93862604439687 17.51794513331643 28.935169490176918 H 0.0 **** 0.06
8260 H 105.31016966181375 17.97908610752232 29.971042553881148 H 0.0 **** 0.06
8261 C 69.03521763894372 24.707292875060016 23.57552363704545 C 0.0 **** -0.24
8262 H 69.4016958706195 25.438948722572114 24.295643276143238 H 0.0 **** 0.06
8263 H 67.96129636811469 24.575365206058812 23.706478001504934 H 0.0 **** 0.06
8264 H 69.54181177044836 23.75482916595767 23.736558459572905 H 0.0 **** 0.06
8265 H 69.23884452496782 25.060698599889303 22.564328113620945 H 0.0 **** 0.06
8266 C 82.40411202473246 50.45383442459483 79.7719796808164 C 0.0 **** -0.24
8267 H 82.16339483155866 50.2113823769773 78.73682891455445 H 0.0 **** 0.06
8268 H 81.71436059764477 51.21588656468254 80.13659376915956 H 0.0 **** 0.06
8269 H 83.42542696180183 50.83105237225154 79.82731772678079 H 0.0 **** 0.06
8270 H 82.31346844802675 49.55729185533907 80.38548032546515 H 0.0 **** 0.06
8271 C 25.404349362005803 58.112718698681306 64.30039774359273 C 0.0 **** -0.24
8272 H 24.729022194462857 57.44472818040771 64.83493562154557 H 0.0 **** 0.06
8273 H 24.89880516164652 59.05956009039295 64.10414171823226 H 0.0 **** 0.06
8274 H 25.697124844812606 57.654384564374254 63.35631451065814 H 0.0 **** 0.06
8275 H 26.291863029484716 58.29341176284544 64.90729344896558 H 0.0 **** 0.06
8276 C 5.012031941597456 8.154867126957155 65.05848183819282 C 0.0 **** -0.24
8277 H 4.64862565134851 8.374544385202954 64.05534398141839 H 0.0 **** 0.06
8278 H 6.099953648674557 8.083584277859918 65.04305403259417 H 0.0 **** 0.06
8279 H 4.590831673088999 7.20819220306503 65.39782947437564 H 0.0 **** 0.06
8280 H 4.709330973831172 8.951894078807646 65.73747301330059 H 0.0 **** 0.06
8281 C 82.95857259339148 41.062216057373575 24.568470364010466 C 0.0 **** -0.24
8282 H 82.05151047022436 40.98068320293606 23.968554852112334 H 0.0 **** 0.06
8283 H 82.79321677295599 40.59582714124555 25.540709940658246 H 0.0 **** 0.06
8284 H 83.2089308963768 42.113868828834825 24.70823815702994 H 0.0 **** 0.06
8285 H 83.77794424650509 40.556975831070076 24.057602232869186 H 0.0 **** 0.06
8286 C 79.52062833221507 17.984893124970597 26.90413041700941 C 0.0 **** -0.24
8287 H 80.36860506000272 18.474717581039215 27.382476860603923 H 0.0 **** 0.06
8288 H 78.60255347565786 18.513081627660284 27.16191392374398 H 0.0 **** 0.06
8289 H 79.4550166026728 16.95265743407913 27.249315129304286 H 0.0 **** 0.06
8290 H 79.65602386265138 17.99836373791672 25.822236475297668 H 0.0 **** 0.06
8291 C 68.5920365855067 61.09299448800233 13.560982684906094 C 0.0 **** -0.24
8292 H 67.63223897217041 60.78928001233831 13.143762247347865 H 0.0 **** 0.06
8293 H 68.61824839591445 60.85072201590806 14.623896089834346 H 0.0 **** 0.06
8294 H 68.72110004717291 62.16767107707223 13.42917692790715 H 0.0 **** 0.06
8295 H 69.3948436034368 60.56494462080771 13.04790080249981 H 0.0 **** 0.06
8296 C 89.62884577169655 8.088027221842266 107.9399357830604 C 0.0 **** -0.24
8297 H 88.9703013057707 7.5129812383337224 108.59055559900368 H 0.0 **** 0.06
8298 H 90.4986196244821 8.421997381464891 108.50723229132743 H 0.0 **** 0.06
8299 H 89.09186133578305 8.954089342580101 107.55313353585632 H 0.0 **** 0.06
8300 H 89.95574813130844 7.462238798553393 107.10862078130305 H 0.0 **** 0.06
8301 C 40.968859064868155 94.6645073992693 76.98032073040082 C 0.0 **** -0.24
8302 H 41.561207465726625 95.49790033873904 77.3593134625329 H 0.0 **** 0.06
8303 H 40.309707918476164 94.30041099154317 77.76830133190992 H 0.0 **** 0.06
8304 H 41.63341409410049 93.86180970058746 76.66181822457051 H 0.0 **** 0.06
8305 H 40.37154382650505 94.99996115158604 76.13262199867879 H 0.0 **** 0.06
8306 C 61.93998567959969 99.42759469811803 37.94363792278212 C 0.0 **** -0.24
8307 H 62.02652192790464 100.26677450233474 37.25413553060573 H 0.0 **** 0.06
8308 H 60.95766476398555 98.96789927826246 37.834850959606726 H 0.0 **** 0.06
8309 H 62.063195024088884 99.78414642587985 38.966860892261 H 0.0 **** 0.06
8310 H 62.712874382394716 98.69216208840794 37.7194375394344 H 0.0 **** 0.06
8311 C 51.45523222638141 101.23926016728785 73.75300530872458 C 0.0 **** -0.24
8312 H 52.36018819613918 100.88338125712497 73.25993960572441 H 0.0 **** 0.06
8313 H 51.62894730969296 101.30592098394936 74.82755978729382 H 0.0 **** 0.06
8314 H 50.63855581355813 100.54467342686081 73.55824462877521 H 0.0 **** 0.06
8315 H 51.19428180669439 102.22486004408483 73.36544795303931 H 0.0 **** 0.06
8316 C 75.78100518433274 101.10900657870789 75.9996347177992 C 0.0 **** -0.24
8317 H 74.76803968206872 100.70828492913625 76.04092549111007 H 0.0 **** 0.06
8318 H 75.90424339422427 101.69196869532828 75.0867423952765 H 0.0 **** 0.06
8319 H 76.4969772462997 100.28699287370372 76.0061425283909 H 0.0 **** 0.06
8320 H 75.95389682285577 101.7477351970276 76.86513228555414 H 0.0 **** 0.06
8321 C 80.16391515285154 23.441640788582994 72.21334468313447 C 0.0 **** -0.24
8322 H 80.88657681228517 24.23007254687424 71.99997079586808 H 0.0 **** 0.06
8323 H 79.22684806353378 23.661248356012113 71.70215134700362 H 0.0 **** 0.06
8324 H 79.98897288248969 23.390649121536285 73.28778774444373 H 0.0 **** 0.06
8325 H 80.55400668717888 22.486323719226295 71.8622638476262 H 0.0 **** 0.06
8326 C 58.093308700192324 102.91151414542969 31.61828429065679 C 0.0 **** -0.24
8327 H 59.05341001243539 103.02311216832152 32.12141069553971 H 0.0 **** 0.06
8328 H 57.29007754060126 103.17710612028927 32.30597062664964 H 0.0 **** 0.06
8329 H 57.968984529241254 101.87829425584266 31.29642570554074 H 0.0 **** 0.06
8330 H 58.060085950767075 103.56964802941147 30.749669914573758 H 0.0 **** 0.06
8331 C 98.76167114633529 77.55899260621517 64.38340075463748 C 0.0 **** -0.24
8332 H 98.64855245585903 77.31874381351207 63.32569162621763 H 0.0 **** 0.06
8333 H 98.1974830580113 78.46342532208212 64.61151725722613 H 0.0 **** 0.06
8334 H 99.81574030848941 77.72079511638944 64.60765503922426 H 0.0 **** 0.06
8335 H 98.38435838840809 76.73267754645396 64.98548492355798 H 0.0 **** 0.06
8336 C 18.010180442679314 25.945661594206285 87.54331869472469 C 0.0 **** -0.24
8337 H 18.495782438000674 26.70591295094266 88.1560792497063 H 0.0 **** 0.06
8338 H 17.862906568595633 26.331614303762194 86.53438916330163 H 0.0 **** 0.06
8339 H 17.044339326393526 25.69168625955149 87.97949217615832 H 0.0 **** 0.06
8340 H 18.637614221679087 25.05548752510407 87.50419301532204 H 0.0 **** 0.06
8341 C 99.30578786621717 30.114444845274562 81.908914433076 C 0.0 **** -0.24
8342 H 98.46251424265249 30.678609474583993 81.5101353642383 H 0.0 **** 0.06
8343 H 99.7544309608725 29.520750348690825 81.11283274642757 H 0.0 **** 0.06
8344 H 98.95657125765133 29.453640348669467 82.70296864542462 H 0.0 **** 0.06
8345 H 100.04669098246191 30.8049842468901 82.31026055423325 H 0.0 **** 0.06
8346 C 78.5338715789801 69.35721389574297 78.62931887240791 C 0.0 **** -0.24
8347 H 78.49352139009892 68.2761584225371 78.75887480421432 H 0.0 **** 0.06
8348 H 79.57459989747656 69.68158620863332 78.60704626525052 H 0.0 **** 0.06
8349 H 78.01929690687712 69.84255415549711 79.45855080362665 H 0.0 **** 0.06
8350 H 78.04765993801067 69.62878525409951 77.69191973710974 H 0.0 **** 0.06
8351 C 26.83333016366666 54.14072501865584 93.67570774891632 C 0.0 **** -0.24
8352 H 26.06070596981587 53.920376345405685 92.93892203168954 H 0.0 **** 0.06
8353 H 27.229589459638845 53.20699121567654 94.0764254623586 H 0.0 **** 0.06
8354 H 26.405436503223058 54.73127691638223 94.48569807365675 H 0.0 **** 0.06
8355 H 27.63700213816108 54.703445954218836 93.2018065766929 H 0.0 **** 0.06
8356 C 62.76755596697683 105.8166895427618 21.52151139243955 C 0.0 **** -0.24
8357 H 62.90779236288688 104.74687463855356 21.366496257205853 H 0.0 **** 0.06
8358 H 62.23632165345515 106.2407095537236 20.66817083829835 H 0.0 **** 0.06
8359 H 63.7382716075133 106.30019955797543 21.621960272652615 H 0.0 **** 0.06
8360 H 62.185572560807884 105.97829145064384 22.428785328400608 H 0.0 **** 0.06
8361 C 51.89865569201196 41.37031832967443 81.88701022513143 C 0.0 **** -0.24
8362 H 52.408998463387604 42.307988144445744 81.66978597237672 H 0.0 **** 0.06
8363 H 50.995143823201914 41.572666049473355 82.46352617734833 H 0.0 **** 0.06
8364 H 52.55990543191297 40.7224964503385 82.46215580527586 H 0.0 **** 0.06
8365 H 51.630034880518714 40.87775784133697 80.95181454999715 H 0.0 **** 0.06
8366 C 94.30193026160443 107.54824818364165 21.072657356682797 C 0.0 **** -0.24
8367 H 95.2486193879272 107.76692534794401 21.56717013007322 H 0.0 **** 0.06
8368 H 94.393696035646 106.61902722648682 20.509707667422212 H 0.0 **** 0.06
8369 H 94.05110072319285 108.36285890663615 20.39301716397122 H 0.0 **** 0.06
8370 H 93.51673287358673 107.44444809211734 21.8209189564633 H 0.0 **** 0.06
8371 C 88.9786495696902 88.23805474582059 64.1738429443088 C 0.0 **** -0.24
8372 H 88.8753561707436 89.22252325112527 64.6307675826888 H 0.0 **** 0.06
8373 H 89.20812506750218 88.35203334645382 63.11462969283994 H 0.0 **** 0.06
8374 H 88.04586083129277 87.68544768644927 64.28653045036901 H 0.0 **** 0.06
8375 H 89.78568891881511 87.69364266713953 64.66510955962559 H 0.0 **** 0.06
8376 C 11.757438380998963 100.73614722020238 25.48155362432029 C 0.0 **** -0.24
8377 H 11.382191507803583 100.7966741208362 24.459186165243686 H 0.0 **** 0.06
8378 H 11.963587786739268 99.69505340911155 25.731765546146388 H 0.0 **** 0.06
8379 H 11.007530319164871 101.13386877949335 26.166392579889994 H 0.0 **** 0.06
8380 H 12.673081723474255 101.31951035646568 25.567311908188685 H 0.0 **** 0.06
8381 C 77.04896257418329 104.80745666815392 15.67066965695318 C 0.0 **** -0.24
8382 H 77.503833447852 104.53271738808508 16.622067918527023 H 0.0 **** 0.06
8383 H 76.04892628247296 105.20470598402846 15.847639467660997 H 0.0 **** 0.06
8384 H 76.98421827492058 103.92718429438997 15.031641055358818 H 0.0 **** 0.06
8385 H 77.6610143573364 105.56735406685499 15.182691661397769 H 0.0 **** 0.06
8386 C 15.104703695591212 109.01323973396387 53.853360496804044 C 0.0 **** -0.24
8387 H 15.708404686197568 109.81762435329716 54.27335853348603 H 0.0 **** 0.06
8388 H 15.342332800548803 108.89685630793156 52.79507354934253 H 0.0 **** 0.06
8389 H 14.0480209205748 109.2557522105975 53.96454079010442 H 0.0 **** 0.06
8390 H 15.321754544259448 108.08362957761449 54.37932888086539 H 0.0 **** 0.06
8391 C 89.74902475792078 97.1865904071746 29.41587278215171 C 0.0 **** -0.24
8392 H 90.48405266408804 97.99092956563587 29.367536139137684 H 0.0 **** 0.06
8393 H 90.08671832244261 96.34848894505524 28.805880256972678 H 0.0 **** 0.06
8394 H 88.79182816792638 97.5471062595941 29.04057580749442 H 0.0 **** 0.06
8395 H 89.63556522977979 96.86111832284564 30.449803005607585 H 0.0 **** 0.06
8396 C 33.908261727272986 45.98622302378856 95.58260390849881 C 0.0 **** -0.24
8397 H 34.99735708797732 46.02742091995129 95.55770593695627 H 0.0 **** 0.06
8398 H 33.53399073887047 45.68954744579478 94.60302151231969 H 0.0 **** 0.06
8399 H 33.513528235286685 46.9682787126055 95.84129273970177 H 0.0 **** 0.06
8400 H 33.590076128535145 45.25872370709443 96.32911748259536 H 0.0 **** 0.06
8401 C 78.17483023958147 36.42557799574513 99.22377801625461 C 0.0 **** -0.24
8402 H 78.27265044162733 37.51123046576643 99.20606342856763 H 0.0 **** 0.06
8403 H 77.48647854001739 36.13592501933924 100.01766840457512 H 0.0 **** 0.06
8404 H 79.15137276366279 35.9763978216521 99.40710771393522 H 0.0 **** 0.06
8405 H 77.79045133592771 36.08015101915431 98.264903234757 H 0.0 **** 0.06
8406 C 35.40045324927709 105.47451525349663 33.76629160344796 C 0.0 **** -0.24
8407 H 35.99887502766046 105.62381402241691 34.664480374526036 H 0.0 **** 0.06
8408 H 35.68142256053906 106.21183846858969 33.01527994448976 H 0.0 **** 0.06
8409 H 34.34471033711384 105.58840163688674 34.01081690159434 H 0.0 **** 0.06
8410 H 35.576006565589466 104.47204271969547 33.375299605691495 H 0.0 **** 0.06
8411 C 26.80990929809579 1.7149282690474195 75.4528640103912 C 0.0 **** -0.24
8412 H 27.35972980311641 2.3970378491562485 76.10021995895691 H 0.0 **** 0.06
8413 H 27.512124949014094 1.075372094370124 74.91933718132528 H 0.0 **** 0.06
8414 H 26.22226985857452 2.2880340620595234 74.73607849492294 H 0.0 **** 0.06
8415 H 26.14397107987884 1.0981360736593047 76.05735023883555 H 0.0 **** 0.06
8416 C 46.988341596630335 11.42279582539851 60.87164622550159 C 0.0 **** -0.24
8417 H 47.28336565292932 12.19897591672671 61.57815040959025 H 0.0 **** 0.06
8418 H 46.21311530629009 10.800649424239197 61.31921960559754 H 0.0 **** 0.06
8419 H 47.852240263754084 10.806821975084702 60.627124151171586 H 0.0 **** 0.06
8420 H 46.60320092175553 11.886172282967522 59.96345143863971 H 0.0 **** 0.06
8421 C 11.452428767121077 101.43613870265298 32.33166399972731 C 0.0 **** -0.24
8422 H 11.250923371019809 102.3057693863852 31.706391340019366 H 0.0 **** 0.06
8423 H 12.527786007677008 101.3382156856549 32.48198956278796 H 0.0 **** 0.06
8424 H 11.071143996612918 100.53989355017734 31.841539065551416 H 0.0 **** 0.06
8425 H 10.959626393139303 101.55996662446276 33.29553550899158 H 0.0 **** 0.06
8426 C 90.09031804030485 89.01955890180587 71.82376445222485 C 0.0 **** -0.24
8427 H 90.03874269860745 88.2483402743793 72.5929346048269 H 0.0 **** 0.06
8428 H 91.12702855063122 89.15275679682902 71.51302412687158 H 0.0 **** 0.06
8429 H 89.70698065771873 89.95788362110481 72.22398815179918 H 0.0 **** 0.06
8430 H 89.4886158062161 88.71726807687094 70.9661324889887 H 0.0 **** 0.06
8431 C 40.016706349620335 89.77932126080938 44.009243258697296 C 0.0 **** -0.24
8432 H 39.18638374753249 89.14596725686373 43.69743573740094 H 0.0 **** 0.06
8433 H 39.6490882279509 90.7863778326533 44.2087473711118 H 0.0 **** 0.06
8434 H 40.76372254354146 89.81544586997293 43.21623967330734 H 0.0 **** 0.06
8435 H 40.464650447264916 89.3698008295493 44.91439735796138 H 0.0 **** 0.06
8436 C 91.0512415652675 33.064367918003285 66.34371578245424 C 0.0 **** -0.24
8437 H 90.01944106913294 33.08672992571793 66.69365079582059 H 0.0 **** 0.06
8438 H 91.49357191789753 32.095652961962145 66.57932378192669 H 0.0 **** 0.06
8439 H 91.61925029825943 33.85292704782566 66.83739122739269 H 0.0 **** 0.06
8440 H 91.07250985166351 33.22129973980287 65.26496606160049 H 0.0 **** 0.06
8441 C 107.84315713713744 96.88047216070521 4.7266132358986965 C 0.0 **** -0.24
8442 H 106.84859343241159 96.52898188037108 4.999928893682229 H 0.0 **** 0.06
8443 H 107.97066975525556 97.9088155434948 5.066522549327811 H 0.0 **** 0.06
8444 H 107.95708814840336 96.83943387876911 3.643036527898758 H 0.0 **** 0.06
8445 H 108.59438333475096 96.24578653275239 5.195897991628112 H 0.0 **** 0.06
8446 C 99.91399925691864 6.050671137246312 44.20665207891165 C 0.0 **** -0.24
8447 H 99.67102704220602 5.54977662291337 43.26921670401377 H 0.0 **** 0.06
8448 H 99.97848462872145 5.312281523227966 45.00593568594604 H 0.0 **** 0.06
8449 H 99.13451753396443 6.776369195501914 44.44248999291456 H 0.0 **** 0.06
8450 H 100.86990465404953 6.563682726514742 44.106433374466874 H 0.0 **** 0.06
8451 C 31.765828531072145 27.665632448819338 78.10102689174607 C 0.0 **** -0.24
8452 H 30.94199282376053 27.937798191574302 77.44081826825779 H 0.0 **** 0.06
8453 H 31.53272795768612 26.72701695954362 78.60412724582396 H 0.0 **** 0.06
8454 H 31.909656062499522 28.450180785331327 78.84480473282994 H 0.0 **** 0.06
8455 H 32.67712764996051 27.549252752115308 77.51568812438548 H 0.0 **** 0.06
8456 C 109.08535408658602 62.61038991820847 12.155818226975668 C 0.0 **** -0.24
8457 H 108.02639261585121 62.463428011363604 11.94033567424114 H 0.0 **** 0.06
8458 H 109.68356426927419 62.06273153106082 11.427508720336817 H 0.0 **** 0.06
8459 H 109.30543489973718 62.24452170112092 13.157830531597483 H 0.0 **** 0.06
8460 H 109.32297891925224 63.67251492794904 12.096574956970528 H 0.0 **** 0.06
8461 C 22.814123970373373 99.78569021477352 57.64844839114107 C 0.0 **** -0.24
8462 H 23.305638070001464 99.13467606100878 56.92520614697918 H 0.0 **** 0.06
8463 H 23.394125881564378 99.80686888256355 58.570811706608595 H 0.0 **** 0.06
8464 H 21.813327178426334 99.40688878884589 57.856482371958236 H 0.0 **** 0.06
8465 H 22.743415478367325 100.793384492457 57.239032449161925 H 0.0 **** 0.06
8466 C 30.795773715540825 47.90159509372381 34.98760898580514 C 0.0 **** -0.24
8467 H 31.095864202916857 47.41712894508027 34.058839866251844 H 0.0 **** 0.06
8468 H 30.474848397968202 47.14493865997536 35.70403824214901 H 0.0 **** 0.06
8469 H 29.97297136657597 48.58786770005367 34.78943980258305 H 0.0 **** 0.06
8470 H 31.640702033419437 48.45488792022399 35.39716488283307 H 0.0 **** 0.06
8471 C 56.70140269158932 28.1312933369898 109.3329473052624 C 0.0 **** -0.24
8472 H 55.73602804787067 27.63119219843442 109.41457170115267 H 0.0 **** 0.06
8473 H 56.72625392603318 28.98525575726495 110.00964106794198 H 0.0 **** 0.06
8474 H 56.84703206331423 28.47438462176163 108.308714756832 H 0.0 **** 0.06
8475 H 57.49494301376321 27.433261681230526 109.59891799495796 H 0.0 **** 0.06
8476 C 50.60154629449963 68.0792800880543 90.19186538416086 C 0.0 **** -0.24
8477 H 50.293997655486066 68.48334157549778 91.15710270384194 H 0.0 **** 0.06
8478 H 49.788384794763545 67.48726588597589 89.7717613160555 H 0.0 **** 0.06
8479 H 51.48008641484557 67.44750877066167 90.32669926190415 H 0.0 **** 0.06
8480 H 50.84300119494077 68.89857359794763 89.51494846015633 H 0.0 **** 0.06
8481 C 35.579266606328844 8.399809465352988 46.99041221746802 C 0.0 **** -0.24
8482 H 36.125466838210286 8.962491401204431 46.23314131212982 H 0.0 **** 0.06
8483 H 34.711882833133615 7.92210129270542 46.53326757254587 H 0.0 **** 0.06
8484 H 35.2474079778446 9.077385930881988 47.777420396031346 H 0.0 **** 0.06
8485 H 36.23164208356067 7.637859958831484 47.417378337090554 H 0.0 **** 0.06
8486 C 106.68521165658352 106.04381599772317 109.36017824812527 C 0.0 **** -0.24
8487 H 107.24218154202039 106.93097188013874 109.6595839778697 H 0.0 **** 0.06
8488 H 105.91458949388374 105.83202524210549 110.1018480233475 H 0.0 **** 0.06
8489 H 107.36584170830449 105.19507572474251 109.28942112214399 H 0.0 **** 0.06
8490 H 106.21912659097562 106.21685674450747 108.3901620238977 H 0.0 **** 0.06
8491 C 50.12392312389608 58.28675801384752 23.863747158939145 C 0.0 **** -0.24
8492 H 50.96337034836699 57.84549233216003 24.40019545310977 H 0.0 **** 0.06
8493 H 49.189035794886365 57.95779657357106 24.318423921847614 H 0.0 **** 0.06
8494 H 50.15280644808712 57.970951392395456 22.820730950041686 H 0.0 **** 0.06
8495 H 50.191192142045054 59.3738972937181 23.915118113146047 H 0.0 **** 0.06
8496 C 80.00186859867384 0.9453473507070953 56.48169549655313 C 0.0 **** -0.24
8497 H 79.24452247869209 0.3905902078355439 55.92825967696851 H 0.0 **** 0.06
8498 H 79.66820846232744 1.0893781468879524 57.509019143244814 H 0.0 **** 0.06
8499 H 80.15674164365885 1.9164028572344591 56.01000229941417 H 0.0 **** 0.06
8500 H 80.93696827710306 0.3858044077091449 56.47768044890495 H 0.0 **** 0.06
8501 C 85.01438274748676 66.13174492815591 62.87948420345178 C 0.0 **** -0.24
8502 H 85.13046429014082 66.53332211609097 63.886085263995525 H 0.0 **** 0.06
8503 H 85.83045819423933 65.4409123493295 62.66713758271027 H 0.0 **** 0.06
8504 H 85.03214870009322 66.94849361447791 62.1584621675558 H 0.0 **** 0.06
8505 H 84.06356979429353 65.6033963276513 62.806942040388634 H 0.0 **** 0.06
8506 C 18.466752710499975 36.90162856256177 55.765181868588314 C 0.0 **** -0.24
8507 H 17.380659034431346 36.97114083084989 55.70539533243783 H 0.0 **** 0.06
8508 H 18.76053433747802 35.8549110701357 55.84280082547707 H 0.0 **** 0.06
8509 H 18.817338618577395 37.444258559441494 56.64330434776349 H 0.0 **** 0.06
8510 H 18.907385032016464 37.337411505705404 54.86863949111049 H 0.0 **** 0.06
8511 C 28.44853032158136 93.30021803009981 28.838029113579474 C 0.0 **** -0.24
8512 H 27.649195240504582 92.60586259844695 29.096961202146495 H 0.0 **** 0.06
8513 H 29.39889966981508 92.76795201006075 28.81439020669108 H 0.0 **** 0.06
8514 H 28.49386183677001 94.09447894891554 29.583591010990254 H 0.0 **** 0.06
8515 H 28.248908113633206 93.73395296110203 27.857886330908727 H 0.0 **** 0.06
8516 C 72.3691348964901 79.65641002338629 53.07903131159204 C 0.0 **** -0.24
8517 H 73.24061407265128 79.84622363519739 52.45258443147309 H 0.0 **** 0.06
8518 H 71.48781802918393 80.10694476742628 52.62066031393722 H 0.0 **** 0.06
8519 H 72.52929944863274 80.09123694895692 54.064991585667485 H 0.0 **** 0.06
8520 H 72.21877332662973 78.58131119519803 53.176158857823644 H 0.0 **** 0.06
8521 C 94.61342380779539 10.978593991214666 89.93880663773473 C 0.0 **** -0.24
8522 H 95.11317009225074 11.477744641456127 89.10856561996195 H 0.0 **** 0.06
8523 H 93.5385034232429 10.958889138432653 89.75615176208237 H 0.0 **** 0.06
8524 H 94.81598240313016 11.520058763954978 90.8626901598494 H 0.0 **** 0.06
8525 H 94.98660525032734 9.957888326238674 90.02566541297779 H 0.0 **** 0.06
8526 C 37.930974993006345 5.028215597794542 47.76003229730446 C 0.0 **** -0.24
8527 H 37.88101866687656 5.30265714137181 48.813722036577616 H 0.0 **** 0.06
8528 H 38.1325190279123 5.917664051425334 47.163172759739325 H 0.0 **** 0.06
8529 H 36.98064317517631 4.591020235794701 47.45378646054033 H 0.0 **** 0.06
8530 H 38.73045605143916 4.301526258300271 47.61178399204451 H 0.0 **** 0.06
8531 C 79.03766080819166 63.727999751709135 56.392094251519666 C 0.0 **** -0.24
8532 H 79.78288165957152 64.5220197036318 56.34845890703883 H 0.0 **** 0.06
8533 H 78.03993565853717 64.16714935588465 56.4283859814189 H 0.0 **** 0.06
8534 H 79.20204190887895 63.12372544692133 57.28371089245479 H 0.0 **** 0.06
8535 H 79.1257991372788 63.0990845517839 55.50558524197686 H 0.0 **** 0.06
8536 C 101.49898791475738 96.84442668525182 46.060672133269804 C 0.0 **** -0.24
8537 H 102.02836484358329 96.48236307000593 45.17916099697595 H 0.0 **** 0.06
8538 H 102.0901350031418 96.63133702391144 46.95157661903721 H 0.0 **** 0.06
8539 H 100.5344305734655 96.34333761499909 46.13544973926548 H 0.0 **** 0.06
8540 H 101.34443793186512 97.91979846717729 45.975006070669224 H 0.0 **** 0.06
8541 C 30.213284768474693 60.191323485317696 101.19121816771053 C 0.0 **** -0.24
8542 H 30.0792436646734 60.61581697214859 102.18587946495995 H 0.0 **** 0.06
8543 H 29.62599298509423 60.761018771465956 100.47082138678917 H 0.0 **** 0.06
8544 H 29.880435260084766 59.15265174042031 101.19160549581022 H 0.0 **** 0.06
8545 H 31.26724422724419 60.23441542802897 100.91669056506402 H 0.0 **** 0.06
8546 C 99.50272847279355 14.753862155779899 42.34234509358146 C 0.0 **** -0.24
8547 H 99.5620021524825 14.653589412486625 43.42575721917775 H 0.0 **** 0.06
8548 H 100.37388564370617 15.29925146918395 41.9796847386503 H 0.0 **** 0.06
8549 H 98.59551733809083 15.297085521650256 42.07722774135242 H 0.0 **** 0.06
8550 H 99.4778419245823 13.763162233557647 41.88751849994258 H 0.0 **** 0.06
8551 C 8.440836816412258 82.29375984132913 52.52311671779383 C 0.0 **** -0.24
8552 H 8.178475581363358 82.90235953639925 53.388343765492706 H 0.0 **** 0.06
8553 H 9.03073722377033 82.88880784471044 51.825716357369494 H 0.0 **** 0.06
8554 H 7.530680517332115 81.95146784371231 52.030075553723165 H 0.0 **** 0.06
8555 H 9.023074265966159 81.43128844155818 52.84911296193838 H 0.0 **** 0.06
8556 C 35.13505759445093 94.94090907959738 41.8530165017585 C 0.0 **** -0.24
8557 H 35.613678236003665 95.61736479465283 42.56125503415461 H 0.0 **** 0.06
8558 H 35.85204630465407 94.18367847546509 41.533163491930054 H 0.0 **** 0.06
8559 H 34.79179657554687 95.50623049503446 40.98599546108133 H 0.0 **** 0.06
8560 H 34.28374308341762 94.4573241437568 42.33173359936009 H 0.0 **** 0.06
8561 C 98.10788134599358 8.134358049827721 4.001528576019666 C 0.0 **** -0.24
8562 H 97.13581316334324 7.7269699599048245 4.274803400820218 H 0.0 **** 0.06
8563 H 98.89366764105915 7.559645549544749 4.492482074726837 H 0.0 **** 0.06
8564 H 98.16805315155563 9.175833887590892 4.318767189122511 H 0.0 **** 0.06
8565 H 98.23584734517729 8.076261925076276 2.9210206564149814 H 0.0 **** 0.06
8566 C 99.59047577387203 80.9881460135295 13.995643636389985 C 0.0 **** -0.24
8567 H 100.00867844553079 81.94769525205771 13.690947614605605 H 0.0 **** 0.06
8568 H 100.12750810105946 80.61996149256004 14.870111090828473 H 0.0 **** 0.06
8569 H 99.6907468384494 80.27217374859782 13.179356715631215 H 0.0 **** 0.06
8570 H 98.53629566987374 81.11324425836972 14.24219298731147 H 0.0 **** 0.06
8571 C 47.64289050103855 74.82352210896295 59.379857814387606 C 0.0 **** -0.24
8572 H 46.77140504926501 75.40525565581328 59.07977608621394 H 0.0 **** 0.06
8573 H 48.36441442701474 74.80286568170908 58.56373506080263 H 0.0 **** 0.06
8574 H 47.33497980170023 73.80563816603888 59.619432756174774 H 0.0 **** 0.06
8575 H 48.09945534171274 75.28056515101605 60.25828601895137 H 0.0 **** 0.06
8576 C 68.77287629667023 89.16039285096153 32.725698470122154 C 0.0 **** -0.24
8577 H 67.9727523852245 89.60295440170614 33.31854654087442 H 0.0 **** 0.06
8578 H 68.3409108700384 88.58705288633465 31.904244808982583 H 0.0 **** 0.06
8579 H 69.37012722937135 88.50126010108602 33.3545069692498 H 0.0 **** 0.06
8580 H 69.40657838336456 89.95148484876289 32.32298262351293 H 0.0 **** 0.06
8581 C 103.61525742672107 42.62219906642555 29.6885742375 C 0.0 **** -0.24
8582 H 104.64137528847488 42.28030781773535 29.82461607558973 H 0.0 **** 0.06
8583 H 103.44690675812524 43.515593909109995 30.291476106913223 H 0.0 **** 0.06
8584 H 102.92672519509931 41.83741825334157 30.000433598004648 H 0.0 **** 0.06
8585 H 103.44729955296327 42.856575046639016 28.63736877734604 H 0.0 **** 0.06
8586 C 79.12520782794833 72.27608737713716 75.1125056132611 C 0.0 **** -0.24
8587 H 78.9715527681752 71.81769461563181 74.13585878052444 H 0.0 **** 0.06
8588 H 79.43598942767629 71.51301657260449 75.82646333779009 H 0.0 **** 0.06
8589 H 78.19448239455672 72.73257869573219 75.44976770831194 H 0.0 **** 0.06
8590 H 79.8986609111281 73.0405764652628 75.03706929218988 H 0.0 **** 0.06
8591 C 21.453224542340934 40.26264396751177 26.993609196990235 C 0.0 **** -0.24
8592 H 20.961991904821588 41.22498219226403 27.132052053289527 H 0.0 **** 0.06
8593 H 21.98067640337098 39.98835878360012 27.9082179258437 H 0.0 **** 0.06
8594 H 22.16432707177978 40.33327807323423 26.17111309842022 H 0.0 **** 0.06
8595 H 20.705809947074727 39.50273199645459 26.763754627203753 H 0.0 **** 0.06
8596 C 63.79242606990138 100.30084997723647 22.529655900847928 C 0.0 **** -0.24
8597 H 64.71640058768304 100.07305972272238 23.06234682146703 H 0.0 **** 0.06
8598 H 64.01940193507063 100.52342480912998 21.48779065678042 H 0.0 **** 0.06
8599 H 63.31154894036918 101.16418004419882 22.98996369250122 H 0.0 **** 0.06
8600 H 63.12318802349891 99.44189130653037 22.582070776255023 H 0.0 **** 0.06
8601 C 30.628791168849773 49.35162515905165 95.07069991634438 C 0.0 **** -0.24
8602 H 29.890765747873786 48.64041303427797 94.69772306735649 H 0.0 **** 0.06
8603 H 30.98756328637043 49.024117640058336 96.04584615968042 H 0.0 **** 0.06
8604 H 30.169419616499823 50.33585318351038 95.16414965577059 H 0.0 **** 0.06
8605 H 31.464629043318382 49.40569068857258 94.37364841460567 H 0.0 **** 0.06
8606 C 50.63980169930525 81.59608669640662 25.017717978818567 C 0.0 **** -0.24
8607 H 50.78659723579396 81.46600662577373 26.090058467172256 H 0.0 **** 0.06
8608 H 49.63397467961475 81.97069949879676 24.831242636379926 H 0.0 **** 0.06
8609 H 50.77049791315732 80.63795799029828 24.51397619727092 H 0.0 **** 0.06
8610 H 51.37005305393215 82.3091096912068 24.635617193884997 H 0.0 **** 0.06
8611 C 54.91200563358086 97.9513207403042 59.526324538066945 C 0.0 **** -0.24
8612 H 54.27847215301233 97.07036596072135 59.630059169842696 H 0.0 **** 0.06
8613 H 54.32802880198909 98.84631360157323 59.74005961476581 H 0.0 **** 0.06
8614 H 55.297888008534954 98.00214193169444 58.50906558705219 H 0.0 **** 0.06
8615 H 55.7435877721621 97.88388344572058 60.22842728490804 H 0.0 **** 0.06
8616 C 89.27345662260429 12.576288956404468 17.105840673598223 C 0.0 **** -0.24
8617 H 90.30181198461085 12.220858190633223 17.155176190249605 H 0.0 **** 0.06
8618 H 88.98882302057126 12.723219206758614 16.064022996733996 H 0.0 **** 0.06
8619 H 89.1901762697358 13.521958178696693 17.642292920285485 H 0.0 **** 0.06
8620 H 88.6112802176675 11.839790276889076 17.563111995031235 H 0.0 **** 0.06
8621 C 51.89985890867757 102.46336559574752 14.349128612536177 C 0.0 **** -0.24
8622 H 52.44531215308416 101.82001912269988 13.658495604888017 H 0.0 **** 0.06
8623 H 52.40122660901932 102.46475327883223 15.317407708670686 H 0.0 **** 0.06
8624 H 50.88302968041768 102.08890331013134 14.46691731036411 H 0.0 **** 0.06
8625 H 51.8692219320215 103.47903288807694 13.953818323912742 H 0.0 **** 0.06
8626 C 93.58664218924307 45.44864965741357 50.29088353857355 C 0.0 **** -0.24
8627 H 94.13329349066721 44.63576042118899 49.814874911137736 H 0.0 **** 0.06
8628 H 93.2690429279427 45.13843745081962 51.28703715366106 H 0.0 **** 0.06
8629 H 92.7108519250357 45.69833473221706 49.69138902508914 H 0.0 **** 0.06
8630 H 94.23336046340083 46.32304114288522 50.371257196741084 H 0.0 **** 0.06
8631 C 19.69879637690822 108.74015592066655 54.614662647023636 C 0.0 **** -0.24
8632 H 19.323284193621703 109.28955621121776 53.7518632826455 H 0.0 **** 0.06
8633 H 18.88321469464229 108.56448801123526 55.31619822884403 H 0.0 **** 0.06
8634 H 20.479991285640224 109.32195696705519 55.10314589568435 H 0.0 **** 0.06
8635 H 20.109121642977286 107.7856486561559 54.28611449790128 H 0.0 **** 0.06
8636 C 56.51529524634765 53.02642115536304 95.18967355229461 C 0.0 **** -0.24
8637 H 56.436307383145305 52.4512808386113 96.11245165062653 H 0.0 **** 0.06
8638 H 57.54246047189736 52.991568455993786 94.82704876534171 H 0.0 **** 0.06
8639 H 56.232097532757564 54.06166026045179 95.38269937186857 H 0.0 **** 0.06
8640 H 55.849342587044276 52.60133019889105 94.43873707193069 H 0.0 **** 0.06
8641 C 102.02605342713053 17.733183386293945 32.39691887386803 C 0.0 **** -0.24
8642 H 102.8773056844567 17.644240858995147 33.071316121359416 H 0.0 **** 0.06
8643 H 101.11449676425491 17.87136011182588 32.978517975745206 H 0.0 **** 0.06
8644 H 101.94239182689614 16.825891593087988 31.797684145817755 H 0.0 **** 0.06
8645 H 102.17128289561526 18.590036762340446 31.739180668213237 H 0.0 **** 0.06
8646 C 102.02499163975219 16.350389894449467 38.104195093300206 C 0.0 **** -0.24
8647 H 102.04833901519453 16.940343274620716 39.02083559434652 H 0.0 **** 0.06
8648 H 101.61807929963129 16.956277961734482 37.29369528805353 H 0.0 **** 0.06
8649 H 101.396234397613 15.473228873099927 38.25409069858685 H 0.0 **** 0.06
8650 H 103.03591345320223 16.03377296850139 37.85010336439723 H 0.0 **** 0.06
8651 C 94.63331444307836 13.171115867415722 41.510354313374066 C 0.0 **** -0.24
8652 H 94.188695106104 13.806934953758912 40.743655101773754 H 0.0 **** 0.06
8653 H 95.38896243730689 13.735756603746154 42.0562753687081 H 0.0 **** 0.06
8654 H 95.09578789822874 12.304501053823572 41.03976654798336 H 0.0 **** 0.06
8655 H 93.8572682295622 12.839538678047234 42.20017581380222 H 0.0 **** 0.06
8656 C 16.81854314014909 77.38774415053501 57.1893089919093 C 0.0 **** -0.24
8657 H 17.84833262921963 77.49034487570037 57.532628959795815 H 0.0 **** 0.06
8658 H 16.139947377286322 77.51769369477529 58.03273284836279 H 0.0 **** 0.06
8659 H 16.67679680734121 76.39671535933923 56.75671699235027 H 0.0 **** 0.06
8660 H 16.610253922787766 78.1466185673761 56.43444865145119 H 0.0 **** 0.06
8661 C 11.720795388355498 49.07500369806539 56.67406021230283 C 0.0 **** -0.24
8662 H 11.953302406088085 49.503479854568894 57.6498284307872 H 0.0 **** 0.06
8663 H 12.340541000199465 48.19402428345674 56.50801655845906 H 0.0 **** 0.06
8664 H 11.921127195887223 49.81337750847857 55.89780243519128 H 0.0 **** 0.06
8665 H 10.668814538839001 48.792456730521195 56.64369027911509 H 0.0 **** 0.06
8666 C 41.124104559294324 88.36187040382177 2.698199476474646 C 0.0 **** -0.24
8667 H 41.39668415112351 88.49072896174414 1.650676347007142 H 0.0 **** 0.06
8668 H 40.145070153763015 88.80793687920033 2.8768898808999888 H 0.0 **** 0.06
8669 H 41.867292844753536 88.84967424993025 3.329549998904488 H 0.0 **** 0.06
8670 H 41.088360144211975 87.29917164511909 2.9358262791691807 H 0.0 **** 0.06
8671 C 76.0251245191988 63.5949715453674 0.8957495067238597 C 0.0 **** -0.24
8672 H 75.9970534692071 64.6810526158826 0.7994278382183211 H 0.0 **** 0.06
8673 H 75.75222063579805 63.13886246963371 -0.055979369883203844 H 0.0 **** 0.06
8674 H 75.31968078445159 63.2803743164163 1.6654420627891113 H 0.0 **** 0.06
8675 H 77.03073326928693 63.28175588107949 1.1749336982631462 H 0.0 **** 0.06
8676 C 34.34496666984262 98.67611092038064 8.5863778995666 C 0.0 **** -0.24
8677 H 35.36736132085625 98.89458686129767 8.895593569652561 H 0.0 **** 0.06
8678 H 33.69039935146617 99.4892588731042 8.900020838150283 H 0.0 **** 0.06
8679 H 34.01630099920382 97.74575009910996 9.049125632092611 H 0.0 **** 0.06
8680 H 34.30727034015371 98.57594088571746 7.502402008331472 H 0.0 **** 0.06
8681 C 77.80504621586766 77.61523908741628 103.68877770584187 C 0.0 **** -0.24
8682 H 78.39149633665843 77.57493152492005 104.60648866343793 H 0.0 **** 0.06
8683 H 76.75163293302933 77.74912044131715 103.93545790246445 H 0.0 **** 0.06
8684 H 77.93389118668583 76.68480167911045 103.13470629720341 H 0.0 **** 0.06
8685 H 78.144225669957 78.45205289365143 103.07708997317147 H 0.0 **** 0.06
8686 C 74.30503513715152 57.42781701732947 18.247719363488685 C 0.0 **** -0.24
8687 H 74.66815156653757 58.33427001238832 18.73263308468989 H 0.0 **** 0.06
8688 H 73.2272966879722 57.34802442452963 18.388352997242368 H 0.0 **** 0.06
8689 H 74.79443338785873 56.559355574009615 18.689163541263103 H 0.0 **** 0.06
8690 H 74.53097069996642 57.46969118912518 17.182846379629837 H 0.0 **** 0.06
8691 C 75.39810020815798 39.8466512885318 46.016979451231066 C 0.0 **** -0.24
8692 H 74.32842495389929 39.6574486904272 45.92405950124726 H 0.0 **** 0.06
8693 H 75.56633206344884 40.91470308989409 46.15841248219331 H 0.0 **** 0.06
8694 H 75.90477003008937 39.51459343120939 45.11146463834015 H 0.0 **** 0.06
8695 H 75.78969493041504 39.30056664890856 46.8746104632807 H 0.0 **** 0.06
8696 C 15.381419865278758 91.48620783306659 55.619434423125064 C 0.0 **** -0.24
8697 H 16.015458128430225 90.88408320746123 54.96803261310599 H 0.0 **** 0.06
8698 H 14.735020462049178 92.11856895676264 55.01147386047016 H 0.0 **** 0.06
8699 H 16.007397205312316 92.11182266980374 56.25692276417547 H 0.0 **** 0.06
8700 H 14.771242737381414 90.83012932794895 56.23985179051464 H 0.0 **** 0.06
8701 C 82.03570672825964 2.2369380469185103 86.74452055946094 C 0.0 **** -0.24
8702 H 81.94547697650285 1.3241776690956328 86.15582035142478 H 0.0 **** 0.06
8703 H 83.05821228997218 2.3327961914567936 87.11132638373226 H 0.0 **** 0.06
8704 H 81.34980520811871 2.193261940480795 87.59083278967614 H 0.0 **** 0.06
8705 H 81.7894792210389 3.0967153250134913 86.12163140649778 H 0.0 **** 0.06
8706 C 20.63296949651493 2.0439151529451385 76.9281155644266 C 0.0 **** -0.24
8707 H 20.550071853226314 1.0320289023714384 77.32447152708573 H 0.0 **** 0.06
8708 H 21.090900050983493 2.0091679497221833 75.93892540727256 H 0.0 **** 0.06
8709 H 21.250686449053035 2.646002880299987 77.594425549334 H 0.0 **** 0.06
8710 H 19.639100269752134 2.486430942123323 76.85384814382394 H 0.0 **** 0.06
8711 C 67.09102591266537 91.92903101356535 48.37025088306848 C 0.0 **** -0.24
8712 H 66.6321130969983 92.8990389071396 48.562210749576764 H 0.0 **** 0.06
8713 H 67.14689415680468 91.7613501806795 47.29450427765326 H 0.0 **** 0.06
8714 H 66.49018538097758 91.14511725891924 48.83000047197771 H 0.0 **** 0.06
8715 H 68.09528797218053 91.9124948264501 48.79313279447007 H 0.0 **** 0.06
8716 C 87.09272438642084 2.82120555971062 47.18785574929197 C 0.0 **** -0.24
8717 H 86.75075536519327 3.8558495407634155 47.198144398253504 H 0.0 **** 0.06
8718 H 87.85853557516687 2.6849005288493686 47.952417780341676 H 0.0 **** 0.06
8719 H 87.51122018847272 2.5860407248110278 46.20957736555985 H 0.0 **** 0.06
8720 H 86.25197354979065 2.1581335761674723 47.39196954832488 H 0.0 **** 0.06
8721 C 93.19099028441039 43.18745590786071 43.141057901634156 C 0.0 **** -0.24
8722 H 93.05329044705503 42.20606448862047 42.68580900073408 H 0.0 **** 0.06
8723 H 93.41122136938428 43.06701138118349 44.20184028116756 H 0.0 **** 0.06
8724 H 92.28072878205646 43.773816247697006 43.02320917498079 H 0.0 **** 0.06
8725 H 94.01954394415637 43.7006906486079 42.653921623920894 H 0.0 **** 0.06
8726 C 107.98452191123688 4.446117430614564 31.80755824054586 C 0.0 **** -0.24
8727 H 108.04427829031856 3.3665921451778047 31.673408551441184 H 0.0 **** 0.06
8728 H 107.59904333996069 4.668276510698007 32.80236850006878 H 0.0 **** 0.06
8729 H 107.31737672725947 4.869488922947355 31.055616203165073 H 0.0 **** 0.06
8730 H 108.97802947065902 4.880567993874607 31.696746238211773 H 0.0 **** 0.06
8731 C 29.720595061370545 28.270161649082198 40.55610070914986 C 0.0 **** -0.24
8732 H 29.58324421890238 29.26392995832746 40.980502736021606 H 0.0 **** 0.06
8733 H 30.759804215938814 28.147407561080122 40.24647388776032 H 0.0 **** 0.06
8734 H 29.067042325488956 28.150946649922048 39.691782201326646 H 0.0 **** 0.06
8735 H 29.473831359202194 27.517656258440013 41.30529173458399 H 0.0 **** 0.06
8736 C 8.485046920074126 92.66884919976349 28.817278864018625 C 0.0 **** -0.24
8737 H 8.210026593443487 93.16455931794428 27.8867542166755 H 0.0 **** 0.06
8738 H 8.363725764019478 91.59112706661904 28.705385723292366 H 0.0 **** 0.06
8739 H 7.8416182878889344 93.02519703410479 29.62275435243221 H 0.0 **** 0.06
8740 H 9.524417562788003 92.89509065442991 29.05713794659262 H 0.0 **** 0.06
8741 C 49.07690778747303 47.89177209866347 44.765966913133866 C 0.0 **** -0.24
8742 H 49.098288958593145 47.60343388519903 45.81702961094226 H 0.0 **** 0.06
8743 H 48.10023067399024 48.31222566245941 44.52514849963376 H 0.0 **** 0.06
8744 H 49.258293575730306 47.0145200056734 44.145431018548834 H 0.0 **** 0.06
8745 H 49.84992459687419 48.63586712219321 44.57731536073777 H 0.0 **** 0.06
8746 C 62.66048710999722 108.225788960695 33.77001056014083 C 0.0 **** -0.24
8747 H 62.08622942194667 109.14278556778733 33.64203735754887 H 0.0 **** 0.06
8748 H 63.364237218675996 108.11949750692166 32.94322650407304 H 0.0 **** 0.06
8749 H 61.98296515601098 107.37169707840084 33.78145382986541 H 0.0 **** 0.06
8750 H 63.20935757351545 108.26757030525204 34.71093372845277 H 0.0 **** 0.06
8751 C 64.8630437468386 88.54460622431064 47.283241549229786 C 0.0 **** -0.24
8752 H 65.77956726535086 88.45972827688617 46.69875264919284 H 0.0 **** 0.06
8753 H 65.113718863452 88.76164834972592 48.32194246952315 H 0.0 **** 0.06
8754 H 64.31140644592949 87.60646322666496 47.23057445962803 H 0.0 **** 0.06
8755 H 64.24913571996211 89.35006872842817 46.881684712914875 H 0.0 **** 0.06
8756 C 5.587039214702017 90.24824488044264 101.21631824441613 C 0.0 **** -0.24
8757 H 6.122559982612135 91.18824631530573 101.35165006816447 H 0.0 **** 0.06
8758 H 5.995563480291272 89.49660058552314 101.89213749981275 H 0.0 **** 0.06
8759 H 5.700916412439192 89.9104130697619 100.1856453678962 H 0.0 **** 0.06
8760 H 4.529936118188235 90.39769650715543 101.43468739857968 H 0.0 **** 0.06
8761 C 75.45616721792868 17.200161516412038 20.06941232398099 C 0.0 **** -0.24
8762 H 75.81825911355611 16.907818045630847 19.083984196302772 H 0.0 **** 0.06
8763 H 74.45032308171008 17.611182238781055 19.97945992033338 H 0.0 **** 0.06
8764 H 76.1202827553079 17.953932036551464 20.49174914905365 H 0.0 **** 0.06
8765 H 75.43467165571607 16.327235098847012 20.721756764717544 H 0.0 **** 0.06
8766 C 27.0232667399504 20.055468617752545 18.85254925171971 C 0.0 **** -0.24
8767 H 26.24658493995105 19.315926840406043 18.66060876691073 H 0.0 **** 0.06
8768 H 27.157755079150604 20.168806989190156 19.928666441452574 H 0.0 **** 0.06
8769 H 26.728348430190294 21.012969276175212 18.420465161688018 H 0.0 **** 0.06
8770 H 27.958366752133855 19.726015585933403 18.401199654080305 H 0.0 **** 0.06
8771 C 11.177134923942148 68.21452074012066 31.904086301554713 C 0.0 **** -0.24
8772 H 11.371781035428597 69.22557102313698 31.54474922326729 H 0.0 **** 0.06
8773 H 10.167154534647125 67.91760822564272 31.61977752187026 H 0.0 **** 0.06
8774 H 11.271015123267077 68.19167233628541 32.98916521759614 H 0.0 **** 0.06
8775 H 11.897268106677686 67.52749383409079 31.46161030486907 H 0.0 **** 0.06
8776 C 68.19787720395948 101.34634425990862 45.62815778846118 C 0.0 **** -0.24
8777 H 68.96085641893904 101.39678640680074 44.850182042632696 H 0.0 **** 0.06
8778 H 67.84124850474394 100.31987226346038 45.719476611928826 H 0.0 **** 0.06
8779 H 67.36553446602791 101.99809373602011 45.36232690793992 H 0.0 **** 0.06
8780 H 68.62497919507425 101.67027826399271 46.57708902912685 H 0.0 **** 0.06
8781 C 6.433034240276143 15.30411997521557 89.36405318467939 C 0.0 **** -0.24
8782 H 5.873278106645458 15.77834275862537 88.55813404051543 H 0.0 **** 0.06
8783 H 7.010832000801287 16.058736385465778 89.89815027988425 H 0.0 **** 0.06
8784 H 7.108610579737885 14.557795061007852 88.9463181183637 H 0.0 **** 0.06
8785 H 5.7402957316466825 14.821198897929207 90.05258016951484 H 0.0 **** 0.06
8786 C 52.54678190461873 38.91254663992578 88.27507804525405 C 0.0 **** -0.24
8787 H 53.13829885488623 39.590043692911365 87.65924746301278 H 0.0 **** 0.06
8788 H 53.20165208547521 38.38922638373299 88.9711339158103 H 0.0 **** 0.06
8789 H 52.04248444066029 38.188529034655915 87.63540905414305 H 0.0 **** 0.06
8790 H 51.80497209611962 39.48342783891795 88.83256228015372 H 0.0 **** 0.06
8791 C 48.353514119849024 69.87853865842484 17.375468935122058 C 0.0 **** -0.24
8792 H 48.36454700289889 70.79733194127465 16.788686123769764 H 0.0 **** 0.06
8793 H 48.04759319493919 69.04608311690339 16.741116457750167 H 0.0 **** 0.06
8794 H 47.6502625104727 69.98341404755763 18.20146541004587 H 0.0 **** 0.06
8795 H 49.35153991165215 69.68813974369345 17.769457015300517 H 0.0 **** 0.06
8796 C 36.41568236298753 82.75935126073529 54.53104754035559 C 0.0 **** -0.24
8797 H 36.931050222474006 82.62283287662073 53.58018394476028 H 0.0 **** 0.06
8798 H 36.90202842967211 83.55513023383926 55.09626453444426 H 0.0 **** 0.06
8799 H 36.45491566434119 81.83191689894299 55.10164991877875 H 0.0 **** 0.06
8800 H 35.37594923897727 83.02893503118287 54.3444986041321 H 0.0 **** 0.06
8801 C 49.682767786904606 71.42580896751815 45.85893770177333 C 0.0 **** -0.24
8802 H 49.27636000277681 70.93638438328739 44.97431568592026 H 0.0 **** 0.06
8803 H 49.58812390700956 70.76018713102656 46.71778055430468 H 0.0 **** 0.06
8804 H 49.133030571405584 72.34672400211619 46.04934064108923 H 0.0 **** 0.06
8805 H 50.735056540149856 71.65840225735305 45.693693533684296 H 0.0 **** 0.06
8806 C 70.9820431580601 53.29125995681856 63.94958909869979 C 0.0 **** -0.24
8807 H 69.96460365461402 53.58109775001148 64.21113593712977 H 0.0 **** 0.06
8808 H 71.67253835288489 53.67353254825162 64.70159769669675 H 0.0 **** 0.06
8809 H 71.23881412778155 53.70785719867852 62.974795094792626 H 0.0 **** 0.06
8810 H 71.05227806826633 52.204498699950555 63.909728529237725 H 0.0 **** 0.06
8811 C 18.301140597884313 74.32850672477764 2.434049392899695 C 0.0 **** -0.24
8812 H 17.935090950766266 73.63832107853068 1.6725328798928842 H 0.0 **** 0.06
8813 H 19.302176828762896 74.02967817519215 2.7438231612692334 H 0.0 **** 0.06
8814 H 17.63201331907692 74.30766893291724 3.2942321254603826 H 0.0 **** 0.06
8815 H 18.33383322337346 75.33814951506184 2.0226328505903126 H 0.0 **** 0.06
8816 C 22.49493968791478 100.79907321235123 83.23044751449673 C 0.0 **** -0.24
8817 H 22.174921622351093 99.76004365776225 83.3027098269828 H 0.0 **** 0.06
8818 H 21.63085766518401 101.45442004306847 83.35076283431499 H 0.0 **** 0.06
8819 H 22.950120020083688 100.97279181917384 82.25559698529615 H 0.0 **** 0.06
8820 H 23.222387343842854 101.0100979770699 84.01436608596836 H 0.0 **** 0.06
8821 C 34.002066545640105 57.545020129895406 5.094263069384626 C 0.0 **** -0.24
8822 H 34.89787836076455 57.05185118432624 4.717549090570484 H 0.0 **** 0.06
8823 H 33.162432475257106 57.32784596931408 4.434032902889941 H 0.0 **** 0.06
8824 H 34.16829842115348 58.62269814390292 5.1279828996787025 H 0.0 **** 0.06
8825 H 33.78167240044226 57.18009451064212 6.097121755921295 H 0.0 **** 0.06
8826 C 100.55997600676663 17.59924995200123 76.80487450314172 C 0.0 **** -0.24
8827 H 101.48165088543033 17.203171092055968 76.37826480941918 H 0.0 **** 0.06
8828 H 99.70801774702149 17.224010681902143 76.23850056024885 H 0.0 **** 0.06
8829 H 100.5774182727427 18.68766380210795 76.7577165184033 H 0.0 **** 0.06
8830 H 100.47511381212493 17.281055773625468 77.84314019840942 H 0.0 **** 0.06
8831 C 85.25199946607808 29.090108842089023 14.191522646459617 C 0.0 **** -0.24
8832 H 86.19273435903466 29.521452977228194 14.53221299326205 H 0.0 **** 0.06
8833 H 84.44383860031735 29.418927619676936 14.845120463474274 H 0.0 **** 0.06
8834 H 85.32102490307665 28.002280273368626 14.218806267356854 H 0.0 **** 0.06
8835 H 85.05045145057 29.416447601991706 13.171750013636853 H 0.0 **** 0.06
8836 C 95.43024767096539 4.901655258620565 78.94850896197711 C 0.0 **** -0.24
8837 H 95.31567245135898 5.982636337057613 79.02664520915006 H 0.0 **** 0.06
8838 H 96.4387331869699 4.6677856265677065 78.60813593536568 H 0.0 **** 0.06
8839 H 94.70482073563916 4.510764546655025 78.23451168448075 H 0.0 **** 0.06
8840 H 95.26057306890196 4.4465099268554695 79.9240914034788 H 0.0 **** 0.06
8841 C 24.138555821724793 10.953574565850843 56.5092069608285 C 0.0 **** -0.24
8842 H 23.24463136771135 10.506556326511458 56.94474071724913 H 0.0 **** 0.06
8843 H 23.866818896957938 11.508262519725704 55.61074092724925 H 0.0 **** 0.06
8844 H 24.84691016864383 10.166095184770185 56.2496337252187 H 0.0 **** 0.06
8845 H 24.595166588801476 11.630068034847866 57.230480120858104 H 0.0 **** 0.06
8846 C 74.39110528487164 80.92205795921696 44.730825549371275 C 0.0 **** -0.24
8847 H 73.50797115712034 80.87821029954237 45.36778028213263 H 0.0 **** 0.06
8848 H 75.13739458687041 81.57163904127374 45.1881728542391 H 0.0 **** 0.06
8849 H 74.11376657917252 81.3184271315393 43.753208207539274 H 0.0 **** 0.06
8850 H 74.80325553171203 79.92005894633189 44.61321604428065 H 0.0 **** 0.06
8851 C 0.25606801029343274 22.0925416956687 55.61783999246964 C 0.0 **** -0.24
8852 H -0.7306191292634878 22.051143278094173 55.15580367927146 H 0.0 **** 0.06
8853 H 0.8925860862627815 21.319710651065577 55.184738534609494 H 0.0 **** 0.06
8854 H 0.16278538782074747 21.927571185084133 56.690907050488136 H 0.0 **** 0.06
8855 H 0.7006663717765775 23.07130070628378 55.437362944878856 H 0.0 **** 0.06
8856 C 39.14624796704243 70.4612031880597 81.22415921104883 C 0.0 **** -0.24
8857 H 39.64634418558336 71.39412006178587 80.96342417767889 H 0.0 **** 0.06
8858 H 38.48467870396598 70.62980851112854 82.07443638150218 H 0.0 **** 0.06
8859 H 39.89143988848147 69.71101976127414 81.48608595622221 H 0.0 **** 0.06
8860 H 38.562885527997054 70.11223813706597 80.37220175191266 H 0.0 **** 0.06
8861 C 88.26035299853287 82.87359072931207 68.36184891074919 C 0.0 **** -0.24
8862 H 88.29286546577349 83.91948312398586 68.05731503566403 H 0.0 **** 0.06
8863 H 87.22422672056183 82.57011196976612 68.51337074867621 H 0.0 **** 0.06
8864 H 88.81467477221143 82.74974701271276 69.29267059872677 H 0.0 **** 0.06
8865 H 88.71035113724447 82.2552407323094 67.58560553053468 H 0.0 **** 0.06
8866 C 31.10616421374894 17.537453835088627 102.13621310781612 C 0.0 **** -0.24
8867 H 31.313079050712815 17.053919393321905 103.09119875309283 H 0.0 **** 0.06
8868 H 31.719910241380973 17.082107468565937 101.35882300230784 H 0.0 **** 0.06
8869 H 31.33981545806975 18.599106182120977 102.2095220594088 H 0.0 **** 0.06
8870 H 30.052090370050053 17.413638967289216 101.88792683923678 H 0.0 **** 0.06
8871 C 11.095040890411315 31.44995337677551 75.80840295785714 C 0.0 **** -0.24
8872 H 10.80717792839683 32.12072605287449 74.99819566855791 H 0.0 **** 0.06
8873 H 10.673975488574895 31.81265156664432 76.74648976138371 H 0.0 **** 0.06
8874 H 12.181884991561947 31.41872108440731 75.88445097826451 H 0.0 **** 0.06
8875 H 10.716094936298818 30.448614972765938 75.60199979312091 H 0.0 **** 0.06
8876 C 90.76436757542518 50.9402076794085 13.372633264659157 C 0.0 **** -0.24
8877 H 91.43324871517643 51.80028129507753 13.383036002616308 H 0.0 **** 0.06
8878 H 91.25847475292585 50.10299253554421 12.877775855766316 H 0.0 **** 0.06
8879 H 89.8532299137803 51.195753806494736 12.831788373618906 H 0.0 **** 0.06
8880 H 90.51391878175787 50.66124314105175 14.396003695178678 H 0.0 **** 0.06
8881 C 42.11924993348816 44.031684976143794 46.528995848102 C 0.0 **** -0.24
8882 H 41.91289080797367 43.854506054285935 45.47330677370279 H 0.0 **** 0.06
8883 H 43.157106527601286 44.342516724335155 46.64979812563438 H 0.0 **** 0.06
8884 H 41.946494677920725 43.114326211239984 47.09167371000444 H 0.0 **** 0.06
8885 H 41.458952773247006 44.81487303301424 46.90176521714721 H 0.0 **** 0.06
8886 C 63.846402000567664 57.60775943512232 54.82439382592574 C 0.0 **** -0.24
8887 H 63.01660672786663 56.91970902023087 54.98536675709181 H 0.0 **** 0.06
8888 H 64.54404259852285 57.53692689826636 55.65852102287195 H 0.0 **** 0.06
8889 H 63.46500091857281 58.626800632360585 54.75331528490989 H 0.0 **** 0.06
8890 H 64.35949805271864 57.34655882296664 53.89872835878134 H 0.0 **** 0.06
8891 C 65.03649766274118 82.64719893747879 53.77965976822705 C 0.0 **** -0.24
8892 H 66.06086738874009 82.47642208316462 53.450233387716196 H 0.0 **** 0.06
8893 H 64.96676968203366 83.62389904565903 54.25966271143031 H 0.0 **** 0.06
8894 H 64.75022266873752 81.87133139763885 54.490730174885044 H 0.0 **** 0.06
8895 H 64.3677809759778 82.61593208596358 52.91985967160582 H 0.0 **** 0.06
8896 C 34.00681646451403 16.46542420113883 57.934904588016494 C 0.0 **** -0.24
8897 H 33.58762412801937 17.178026587453473 57.2238465466603 H 0.0 **** 0.06
8898 H 33.199770837876656 15.902471015569802 58.403586698592505 H 0.0 **** 0.06
8899 H 34.56756880540206 17.002659194303817 58.69996095926191 H 0.0 **** 0.06
8900 H 34.67231049003561 15.779593595926997 57.411280760392685 H 0.0 **** 0.06
8901 C 94.00847205297117 36.45062943942021 8.918352721398776 C 0.0 **** -0.24
8902 H 94.40145584644108 35.72051000305519 8.210636518787055 H 0.0 **** 0.06
8903 H 94.83407997004005 37.00775909375068 9.362364018164271 H 0.0 **** 0.06
8904 H 93.45462103962137 35.93490133200143 9.702933148756472 H 0.0 **** 0.06
8905 H 93.34373135578252 37.13934732887361 8.397477199887135 H 0.0 **** 0.06
8906 C 92.78719203841106 35.483966807151575 80.89774046152382 C 0.0 **** -0.24
8907 H 93.67821449217378 36.00740443625182 81.2451795560379 H 0.0 **** 0.06
8908 H 92.99254978834577 34.414530546812216 80.84555648848237 H 0.0 **** 0.06
8909 H 92.51317783541187 35.85066925972171 79.90844859426954 H 0.0 **** 0.06
8910 H 91.96644261515266 35.66378710802695 81.59211205343809 H 0.0 **** 0.06
8911 C 21.176394049187184 89.45172082939709 20.366638653376214 C 0.0 **** -0.24
8912 H 21.42704869127523 88.45560996484471 20.000130368088776 H 0.0 **** 0.06
8913 H 21.99976535713139 89.83384810380332 20.970448491658658 H 0.0 **** 0.06
8914 H 20.27351778517576 89.3977126999337 20.97409432067934 H 0.0 **** 0.06
8915 H 21.005955029182907 90.1171924195044 19.520417074167085 H 0.0 **** 0.06
8916 C 9.955423144704653 38.19882014617205 99.60047701319408 C 0.0 **** -0.24
8917 H 10.297754152488778 39.20491781663344 99.84284207868934 H 0.0 **** 0.06
8918 H 8.86903953264384 38.19445554996144 99.51904360175193 H 0.0 **** 0.06
8919 H 10.264527475545606 37.51139990271529 100.38798053215224 H 0.0 **** 0.06
8920 H 10.393260520339098 37.88494025977537 98.65272455062735 H 0.0 **** 0.06
8921 C 94.1875465738203 105.80084093264529 73.92982715789572 C 0.0 **** -0.24
8922 H 94.39838256150644 106.59737538655791 74.64349299010665 H 0.0 **** 0.06
8923 H 94.31172393220018 104.83379285457322 74.41765692876471 H 0.0 **** 0.06
8924 H 94.87738186199512 105.87561577653734 73.08891759941899 H 0.0 **** 0.06
8925 H 93.16340919773818 105.8981800673275 73.57020712352315 H 0.0 **** 0.06
8926 C 96.90527586136682 74.94868858695983 60.9979397781174 C 0.0 **** -0.24
8927 H 96.1065348762287 75.60736536460867 61.33890987152161 H 0.0 **** 0.06
8928 H 97.86160890859446 75.31322208668729 61.371846520683334 H 0.0 **** 0.06
8929 H 96.92332499236102 74.93363501981842 59.90749924459398 H 0.0 **** 0.06
8930 H 96.72821028217015 73.94051980677 61.371779751142014 H 0.0 **** 0.06
8931 C 50.28256611712865 21.59871888095617 35.581652628501814 C 0.0 **** -0.24
8932 H 50.04222978774831 22.41314296504845 34.897457644382 H 0.0 **** 0.06
8933 H 51.355368811841004 21.40911157242701 35.557009608017154 H 0.0 **** 0.06
8934 H 49.747520223248046 20.699605599034697 35.27663288834066 H 0.0 **** 0.06
8935 H 49.984013858331394 21.87466158950255 36.59286280442595 H 0.0 **** 0.06
8936 C 59.515222086235184 71.03581601798496 81.14146071507047 C 0.0 **** -0.24
8937 H 60.49481360122684 70.5714860703539 81.03522067143716 H 0.0 **** 0.06
8938 H 58.74915488597378 70.36212980963407 80.75662849755017 H 0.0 **** 0.06
8939 H 59.49292105855716 71.96990416645707 80.57998331844594 H 0.0 **** 0.06
8940 H 59.32295647882711 71.24160875606032 82.19467112690764 H 0.0 **** 0.06
8941 C 73.52202556331295 10.3386625866599 65.91099171361998 C 0.0 **** -0.24
8942 H 74.6077325386502 10.252194932100359 65.86848796325467 H 0.0 **** 0.06
8943 H 73.07149999752488 9.369456883895593 65.69693591218771 H 0.0 **** 0.06
8944 H 73.18660569041452 11.066473491973857 65.17213471838352 H 0.0 **** 0.06
8945 H 73.22249819299402 10.667496376662468 66.9063668097254 H 0.0 **** 0.06
8946 C 49.40906174346293 46.46519912856171 80.18060722297622 C 0.0 **** -0.24
8947 H 50.099100731852616 46.22861980722984 80.99089686983183 H 0.0 **** 0.06
8948 H 49.83760674526201 47.24862836066628 79.55462580101641 H 0.0 **** 0.06
8949 H 48.46271623528284 46.80940668176475 80.59869362502417 H 0.0 **** 0.06
8950 H 49.236964379536744 45.57298246918873 79.57901037470526 H 0.0 **** 0.06
8951 C 64.91207976690833 29.347326405665427 102.22096106704505 C 0.0 **** -0.24
8952 H 65.08303963997119 29.398950192429538 103.29634220012551 H 0.0 **** 0.06
8953 H 63.84174626336784 29.391433648467824 102.02151040177506 H 0.0 **** 0.06
8954 H 65.3165403234911 28.413111744696835 101.83310745677325 H 0.0 **** 0.06
8955 H 65.40710569419832 30.187492235030845 101.73466122143756 H 0.0 **** 0.06
8956 C 30.99284382954599 95.04134315461503 24.97055907069432 C 0.0 **** -0.24
8957 H 31.237636915093645 94.68233084040368 25.969851486346556 H 0.0 **** 0.06
8958 H 30.89411478306394 94.19244402338923 24.29341525785162 H 0.0 **** 0.06
8959 H 31.787714345151073 95.69840233619952 24.61596209209847 H 0.0 **** 0.06
8960 H 30.053481728065748 95.59272487011093 25.00251023368878 H 0.0 **** 0.06
8961 C 20.506783419090766 24.387322916116734 48.08924206782325 C 0.0 **** -0.24
8962 H 20.25598620555968 25.434460373602974 47.91893710348336 H 0.0 **** 0.06
8963 H 21.346826439810684 24.10730327333888 47.453911785397224 H 0.0 **** 0.06
8964 H 19.645042250471022 23.763487199247937 47.84858650826459 H 0.0 **** 0.06
8965 H 20.77802544763489 24.244056232337396 49.13487787935827 H 0.0 **** 0.06
8966 C 105.35217385210893 73.91763316482454 62.42535155533122 C 0.0 **** -0.24
8967 H 104.77138143799351 74.80860978395565 62.184759066170415 H 0.0 **** 0.06
8968 H 105.73117407768122 73.99658196081418 63.445032807163386 H 0.0 **** 0.06
8969 H 106.18853257131804 73.83106202947187 61.73213775960622 H 0.0 **** 0.06
8970 H 104.71699382236046 73.03601377952685 62.341093393052006 H 0.0 **** 0.06
8971 C 8.744027140082318 8.251069619519313 41.60078526709543 C 0.0 **** -0.24
8972 H 9.778011644154837 8.518763622430583 41.818830768404325 H 0.0 **** 0.06
8973 H 8.265795345392148 7.880908817125615 42.50865766238434 H 0.0 **** 0.06
8974 H 8.723257648054 7.474750369020057 40.835897748906746 H 0.0 **** 0.06
8975 H 8.209043922728213 9.129855669500827 41.23975488868652 H 0.0 **** 0.06
8976 C 106.33305140282317 36.981990935641626 96.77393709357915 C 0.0 **** -0.24
8977 H 107.2574326859258 37.46321612425996 96.45754757349522 H 0.0 **** 0.06
8978 H 105.50831495319244 37.69127417318923 96.69531770747818 H 0.0 **** 0.06
8979 H 106.43123297438072 36.65144063824514 97.80787990399972 H 0.0 **** 0.06
8980 H 106.13399294114063 36.120821799085434 96.13487810864052 H 0.0 **** 0.06
8981 C 93.51731950358345 7.232243361749497 39.27785793438278 C 0.0 **** -0.24
8982 H 94.3326264353108 7.498077732313817 38.605491571086645 H 0.0 **** 0.06
8983 H 93.63902348687493 6.199539491613933 39.60660066470322 H 0.0 **** 0.06
8984 H 92.56701934211348 7.337847328020558 38.75583666978508 H 0.0 **** 0.06
8985 H 93.53238386647284 7.893381138285207 40.14485667373873 H 0.0 **** 0.06
8986 C 43.551863471172396 79.49395854780914 104.18744964072769 C 0.0 **** -0.24
8987 H 44.23222992117542 80.25080400367091 104.57822109376532 H 0.0 **** 0.06
8988 H 43.74626722810635 78.54161411617292 104.68248116568033 H 0.0 **** 0.06
8989 H 43.70752168404198 79.3852350571035 103.11423830398782 H 0.0 **** 0.06
8990 H 42.522570211456724 79.79903606423932 104.3765844261 H 0.0 **** 0.06
8991 C 47.68350147662409 68.19603993083072 24.60120021276255 C 0.0 **** -0.24
8992 H 48.615454946960455 67.72845389390828 24.283492971741126 H 0.0 **** 0.06
8993 H 47.272079432016 68.7827557367137 23.779898000045186 H 0.0 **** 0.06
8994 H 47.87694103882009 68.848220101679 25.453289444654317 H 0.0 **** 0.06
8995 H 46.97041793878344 67.4237753212902 24.889261130314285 H 0.0 **** 0.06
8996 C 99.47017667133917 56.41871539029859 103.91029838545786 C 0.0 **** -0.24
8997 H 99.91860779301231 56.94729894100965 104.7516977194706 H 0.0 **** 0.06
8998 H 98.65710260967757 57.0163612597492 103.49756133351637 H 0.0 **** 0.06
8999 H 99.08036995622257 55.459662759742514 104.2504654141675 H 0.0 **** 0.06
9000 H 100.22576203688325 56.25227532735747 103.14187833585662 H 0.0 **** 0.06
9001 C 21.12014255778311 94.78873903584893 4.523252208369115 C 0.0 **** -0.24
9002 H 21.945184549967223 95.3488664767811 4.083375162165979 H 0.0 **** 0.06
9003 H 20.46348674333055 94.42787715291932 3.731015656945573 H 0.0 **** 0.06
9004 H 20.557791896175758 95.43677220028188 5.195537577101874 H 0.0 **** 0.06
9005 H 21.514537085355812 93.94017182922207 5.082626444567168 H 0.0 **** 0.06
9006 C 40.557668758216835 70.59235559394739 58.350505027564 C 0.0 **** -0.24
9007 H 40.7294056479017 70.13805828647352 59.32622027825704 H 0.0 **** 0.06
9008 H 39.90353164679331 71.45842252012172 58.46284694012559 H 0.0 **** 0.06
9009 H 40.086584125641764 69.86528762832856 57.68871251760788 H 0.0 **** 0.06
9010 H 41.50955357795644 70.90828296124852 57.92445101936738 H 0.0 **** 0.06
9011 C 54.267786968772214 101.6723119489056 53.724825471892444 C 0.0 **** -0.24
9012 H 54.994489088432374 102.33389457695178 53.25414375294744 H 0.0 **** 0.06
9013 H 54.110291076754095 100.79803551232871 53.092986383386005 H 0.0 **** 0.06
9014 H 53.32462830380936 102.20186243155051 53.855059201838685 H 0.0 **** 0.06
9015 H 54.64325586889561 101.35361363143258 54.69766841591593 H 0.0 **** 0.06
9016 C 16.677902835402588 16.55616927952278 91.3156617979263 C 0.0 **** -0.24
9017 H 15.86396628314506 15.842714444704676 91.19064458627193 H 0.0 **** 0.06
9018 H 17.446169489445072 16.121876720229977 91.95473702265373 H 0.0 **** 0.06
9019 H 16.294811868735913 17.4675563505592 91.77457330955883 H 0.0 **** 0.06
9020 H 17.106574886842687 16.792235790547203 90.34098759281314 H 0.0 **** 0.06
9021 C 106.13458659354646 30.959612423715377 98.42970459040453 C 0.0 **** -0.24
9022 H 105.43948532637103 30.50417257091921 97.72445241868542 H 0.0 **** 0.06
9023 H 107.15093128272736 30.64133295659692 98.19575467924659 H 0.0 **** 0.06
9024 H 105.88059760493725 30.648029346207117 99.44244167357087 H 0.0 **** 0.06
9025 H 106.06733216015029 32.044914821138335 98.35616959011543 H 0.0 **** 0.06
9026 C 35.12691829262954 3.269769390442818 82.19465685202744 C 0.0 **** -0.24
9027 H 34.97046863279686 3.3945396807804684 81.12293358163771 H 0.0 **** 0.06
9028 H 34.17330067854772 3.3676527731218755 82.71460609273035 H 0.0 **** 0.06
9029 H 35.81639808255678 4.034107960484107 82.553142602408 H 0.0 **** 0.06
9030 H 35.54715584114888 2.2818637944821063 82.38773684981788 H 0.0 **** 0.06
9031 C 12.44498295966126 19.985579650560716 103.79848262981902 C 0.0 **** -0.24
9032 H 13.46750494475279 20.209520385401163 103.49393835105795 H 0.0 **** 0.06
9033 H 12.036556913932799 19.206308906080572 103.15375383651127 H 0.0 **** 0.06
9034 H 11.835458438467427 20.885319277931945 103.71310502067794 H 0.0 **** 0.06
9035 H 12.441224320830571 19.64076911289332 104.83271057884689 H 0.0 **** 0.06
9036 C 86.2857899610866 72.9153671881847 96.5996830894037 C 0.0 **** -0.24
9037 H 85.47493743244883 72.29869779958976 96.21165484749451 H 0.0 **** 0.06
9038 H 86.08489921945306 73.16466872106126 97.64163487446865 H 0.0 **** 0.06
9039 H 86.35674598343547 73.83168966241193 96.01344402374616 H 0.0 **** 0.06
9040 H 87.22358982577549 72.36588881274642 96.53065631346459 H 0.0 **** 0.06
9041 C 26.424464371592308 8.990458048543303 47.2060808242058 C 0.0 **** -0.24
9042 H 27.197556157653423 9.475200026550198 46.61004210166348 H 0.0 **** 0.06
9043 H 25.678940426585257 9.728325544894915 47.50338621509502 H 0.0 **** 0.06
9044 H 26.87394935829883 8.54996095283856 48.09542798068867 H 0.0 **** 0.06
9045 H 25.946970904445834 8.209153228795472 46.61439285569912 H 0.0 **** 0.06
9046 C 82.03800875653108 50.927332057224305 83.84311582422 C 0.0 **** -0.24
9047 H 81.37468158379274 51.70589211014055 84.21959046985323 H 0.0 **** 0.06
9048 H 82.49674531140604 50.40521774618384 84.68277187338204 H 0.0 **** 0.06
9049 H 82.81481577298108 51.379887316725615 83.22729001392581 H 0.0 **** 0.06
9050 H 81.46421617216777 50.22040366481343 83.24430103246392 H 0.0 **** 0.06
9051 C 18.925638869830095 78.37287554426604 8.626167856584715 C 0.0 **** -0.24
9052 H 18.138810498956104 77.71308216117598 8.261978869806 H 0.0 **** 0.06
9053 H 18.99148340538477 79.2489414343737 7.9801508527100395 H 0.0 **** 0.06
9054 H 19.87780343794759 77.84301085707932 8.618827665885362 H 0.0 **** 0.06
9055 H 18.692894879480377 78.6883502277218 9.64360132377476 H 0.0 **** 0.06
9056 C 46.83354795851733 48.559223449349815 1.257446207363068 C 0.0 **** -0.24
9057 H 47.29506044496378 49.09228301833974 0.42602898425746183 H 0.0 **** 0.06
9058 H 45.86586969176028 49.00767378676363 1.483888173569139 H 0.0 **** 0.06
9059 H 47.478597294643066 48.62376656332191 2.1332077957281594 H 0.0 **** 0.06
9060 H 46.69384645263051 47.51324135645643 0.9860889323642681 H 0.0 **** 0.06
9061 C 93.87031839218207 102.68305468648171 104.4165802525913 C 0.0 **** -0.24
9062 H 94.62767420055161 102.9357073545761 103.67411159950188 H 0.0 **** 0.06
9063 H 94.10521384087019 103.17802001208118 105.35910947709647 H 0.0 **** 0.06
9064 H 93.85336399520389 101.60309289955187 104.56571773079759 H 0.0 **** 0.06
9065 H 92.89312820212729 103.01627220696791 104.06500472578523 H 0.0 **** 0.06
9066 C 35.25816302594268 91.9729228308504 79.67177821657695 C 0.0 **** -0.24
9067 H 35.77991672426117 91.7613305950245 78.73843226310355 H 0.0 **** 0.06
9068 H 35.75628278153749 92.7941891833234 80.18679388415359 H 0.0 **** 0.06
9069 H 35.27061389991263 91.08547739955713 80.30462768605122 H 0.0 **** 0.06
9070 H 34.22655300769 92.25110641012685 79.45543694688412 H 0.0 **** 0.06
9071 C 71.88421325194221 39.97881457810442 75.34080747890664 C 0.0 **** -0.24
9072 H 72.25961136764111 39.32446829664963 76.12766900993407 H 0.0 **** 0.06
9073 H 71.9761137807852 41.01826209380792 75.65863307223657 H 0.0 **** 0.06
9074 H 70.83668057511935 39.74961516591571 75.14618793850286 H 0.0 **** 0.06
9075 H 72.46528537037389 39.82381527117181 74.4314350043989 H 0.0 **** 0.06
9076 C 108.55847803013916 53.89310398098442 5.057975668529025 C 0.0 **** -0.24
9077 H 109.07708904505508 53.183304879663496 4.412942529196329 H 0.0 **** 0.06
9078 H 109.26517726510629 54.31996483597521 5.76968197589693 H 0.0 **** 0.06
9079 H 107.7640903773324 53.378998627510754 5.5985834576606806 H 0.0 **** 0.06
9080 H 108.12828862065003 54.688676752232595 4.450147675749832 H 0.0 **** 0.06
9081 C 13.201839809555509 39.633518833065494 12.672704610672668 C 0.0 **** -0.24
9082 H 12.143632709782821 39.37547964185762 12.625774905583114 H 0.0 **** 0.06
9083 H 13.719198561423156 39.200200557356 11.816125303676245 H 0.0 **** 0.06
9084 H 13.63073097206879 39.24100625663249 13.593881594752759 H 0.0 **** 0.06
9085 H 13.31211617011607 40.717976105917614 12.653354293090445 H 0.0 **** 0.06
9086 C 73.52398256171371 77.77473543714109 48.03805559933117 C 0.0 **** -0.24
9087 H 74.05148498571185 77.48468912109172 47.13009352684642 H 0.0 **** 0.06
9088 H 73.06217499021189 76.89495668333205 48.486362394037144 H 0.0 **** 0.06
9089 H 72.75249427336492 78.50463307991225 47.79195778243169 H 0.0 **** 0.06
9090 H 74.2286845941471 78.21508750129078 48.74301583775824 H 0.0 **** 0.06
9091 C 104.89418412941575 109.6217739100949 15.555185518395291 C 0.0 **** -0.24
9092 H 105.78540475340311 110.19894013506345 15.307787385504525 H 0.0 **** 0.06
9093 H 105.08569804181994 108.56325620905619 15.374169909882966 H 0.0 **** 0.06
9094 H 104.06279859377277 109.95290210355739 14.933530441741567 H 0.0 **** 0.06
9095 H 104.64525025468615 109.77208325288396 16.60565440799013 H 0.0 **** 0.06
9096 C 4.583515917969123 77.19468141163964 109.27147554731893 C 0.0 **** -0.24
9097 H 5.5690565362361895 76.74368111928237 109.15984561262505 H 0.0 **** 0.06
9098 H 4.180911350242496 77.43443882778092 108.28688078230505 H 0.0 **** 0.06
9099 H 4.665968704166772 78.10651659831876 109.8631291649819 H 0.0 **** 0.06
9100 H 3.9188889164177283 76.49344134298497 109.77605475466652 H 0.0 **** 0.06
9101 C 64.9906798587225 93.9751393142903 16.088085404758743 C 0.0 **** -0.24
9102 H 64.67400529474196 94.97640157860936 16.38172465282679 H 0.0 **** 0.06
9103 H 65.85992370685551 94.04666197410229 15.434912788282816 H 0.0 **** 0.06
9104 H 64.17713005504874 93.47833736368351 15.55805382382988 H 0.0 **** 0.06
9105 H 65.24908186849791 93.40091355927414 16.977136577811507 H 0.0 **** 0.06
9106 C 19.398466940105635 107.15450152554543 63.362769112974206 C 0.0 **** -0.24
9107 H 18.9854077049782 106.27472135740064 63.85558729195935 H 0.0 **** 0.06
9108 H 19.941304866875015 106.84763120141768 62.468589898584526 H 0.0 **** 0.06
9109 H 20.079044460693837 107.66540615044748 64.04471238275607 H 0.0 **** 0.06
9110 H 18.588569806807783 107.8286096912555 63.0846582397042 H 0.0 **** 0.06
9111 C 16.54794671950633 69.40097258994831 28.055180299998597 C 0.0 **** -0.24
9112 H 16.466337433237616 69.43948393940528 26.969064906405862 H 0.0 **** 0.06
9113 H 16.04233630378917 70.26437166233109 28.487929680129923 H 0.0 **** 0.06
9114 H 17.599037137906922 69.41364382498253 28.3414112817307 H 0.0 **** 0.06
9115 H 16.08273477793868 68.48530045229762 28.422205261725594 H 0.0 **** 0.06
9116 C 50.569102906749436 20.766217455189434 103.08265740475144 C 0.0 **** -0.24
9117 H 50.26917635852095 21.278595166904893 103.99734208303477 H 0.0 **** 0.06
9118 H 50.16518276944339 21.297125652228488 102.2204985541095 H 0.0 **** 0.06
9119 H 50.18404209361813 19.746462530344246 103.09514491618324 H 0.0 **** 0.06
9120 H 51.65710397508383 20.743164502548723 103.019040496414 H 0.0 **** 0.06
9121 C 80.35213295470447 29.380675255711793 3.710908984206611 C 0.0 **** -0.24
9122 H 79.60564323341798 30.16620366686155 3.597957565613541 H 0.0 **** 0.06
9123 H 81.23108302194561 29.78349946391816 4.214783303857104 H 0.0 **** 0.06
9124 H 80.6368414643338 29.00723426842876 2.726796286846138 H 0.0 **** 0.06
9125 H 79.93605480176181 28.565307657650578 4.3019533761083295 H 0.0 **** 0.06
9126 C 22.767479415853074 29.187106862027065 104.42879050420265 C 0.0 **** -0.24
9127 H 22.719157982469312 28.122865873520652 104.20000243539803 H 0.0 **** 0.06
9128 H 23.613131131474006 29.377474822627107 105.09073094683757 H 0.0 **** 0.06
9129 H 21.844418210773256 29.495688009488276 104.91991123105456 H 0.0 **** 0.06
9130 H 22.894156858772362 29.752042683188677 103.50550604937493 H 0.0 **** 0.06
9131 C 54.421267475104344 68.92749850184231 69.59558306323117 C 0.0 **** -0.24
9132 H 53.826505804405855 69.5397748064077 70.27345705371127 H 0.0 **** 0.06
9133 H 54.09711018291782 67.88879129004482 69.6658275089788 H 0.0 **** 0.06
9134 H 55.47332137641004 68.99865379673537 69.87187345711686 H 0.0 **** 0.06
9135 H 54.288319491996816 69.28219426590653 68.57411179496535 H 0.0 **** 0.06
9136 C 94.35474193353171 79.5475036780536 62.410577029053925 C 0.0 **** -0.24
9137 H 94.28685805223088 78.46110600663519 62.470533341323105 H 0.0 **** 0.06
9138 H 94.83015546065421 79.83033237927117 61.47082183794312 H 0.0 **** 0.06
9139 H 94.94797702447269 79.92038773818734 63.24544975107618 H 0.0 **** 0.06
9140 H 93.35340643819278 79.9762767023721 62.45564148163693 H 0.0 **** 0.06
9141 C 59.51883755256472 103.69576362178532 37.536331831001434 C 0.0 **** -0.24
9142 H 60.59102528441977 103.59644773069314 37.36657408313681 H 0.0 **** 0.06
9143 H 59.21018998847765 103.00985259477423 38.324539642021506 H 0.0 **** 0.06
9144 H 58.982210804967195 103.4589228626657 36.616621473115 H 0.0 **** 0.06
9145 H 59.29201656312358 104.71924636421028 37.83514479179405 H 0.0 **** 0.06
9146 C 67.35758469811944 13.410209092327946 62.300300087166875 C 0.0 **** -0.24
9147 H 67.15301672683879 14.392626722120028 61.87577286165396 H 0.0 **** 0.06
9148 H 68.34891269057854 13.408540023639603 62.75308134913388 H 0.0 **** 0.06
9149 H 67.31610271366088 12.658506523038497 61.51277846879492 H 0.0 **** 0.06
9150 H 66.61072047674347 13.181017957761526 63.06024818393121 H 0.0 **** 0.06
9151 C 25.585414099431123 47.05863642072855 8.112935409738611 C 0.0 **** -0.24
9152 H 25.80494795335808 46.967543977461126 7.048679816311221 H 0.0 **** 0.06
9153 H 24.55564459240541 47.39067364987783 8.244213338373271 H 0.0 **** 0.06
9154 H 26.261825529395527 47.78498414232808 8.562338766707938 H 0.0 **** 0.06
9155 H 25.71924277389305 46.08934584890812 8.5950926726224 H 0.0 **** 0.06
9156 C 43.851007410891974 64.694416424195 30.49155875867214 C 0.0 **** -0.24
9157 H 44.31989202291366 65.65025913480154 30.257104468715255 H 0.0 **** 0.06
9158 H 42.78314515918329 64.7514245787477 30.28035471230396 H 0.0 **** 0.06
9159 H 44.001852873878065 64.46465215117614 31.54613633644101 H 0.0 **** 0.06
9160 H 44.30114536777326 63.91077875867562 29.881345893915437 H 0.0 **** 0.06
9161 C 14.805483031578824 6.456147334566211 103.44476613352614 C 0.0 **** -0.24
9162 H 15.250204332714535 7.013245885267089 104.26903672348426 H 0.0 **** 0.06
9163 H 14.047699964928178 7.070887972220133 102.95835615518847 H 0.0 **** 0.06
9164 H 14.345189317672542 5.54570872974986 103.82846276062648 H 0.0 **** 0.06
9165 H 15.579547548275354 6.1952337371496 102.72371895382771 H 0.0 **** 0.06
9166 C 26.147359516856227 10.863276415471034 18.340439012717653 C 0.0 **** -0.24
9167 H 26.488700234877598 9.882997808739233 18.00799319057596 H 0.0 **** 0.06
9168 H 25.05744374639677 10.889214879445234 18.334898403084182 H 0.0 **** 0.06
9169 H 26.533326450674025 11.629487868192385 17.668414178716546 H 0.0 **** 0.06
9170 H 26.510738996017736 11.049982201572845 19.35106712203003 H 0.0 **** 0.06
9171 C 35.11431263252351 100.44938991724969 58.736977470946584 C 0.0 **** -0.24
9172 H 34.2689861878556 101.0177403760475 59.12629337602492 H 0.0 **** 0.06
9173 H 36.01471659838626 100.71463268188924 59.29181968134401 H 0.0 **** 0.06
9174 H 35.2540188673336 100.68322304265759 57.68230594732852 H 0.0 **** 0.06
9175 H 34.91753281403648 99.38377133467439 58.850918510496335 H 0.0 **** 0.06
9176 C 73.3260355555941 22.84256318445854 28.68348211944658 C 0.0 **** -0.24
9177 H 72.73802511071295 22.31601084744449 27.931595007851172 H 0.0 **** 0.06
9178 H 74.37975417744275 22.587230280184155 28.56348158928327 H 0.0 **** 0.06
9179 H 72.99139577013534 22.546516252871 29.677510928238064 H 0.0 **** 0.06
9180 H 73.19599085927013 23.91730074839298 28.56047659343926 H 0.0 **** 0.06
9181 C 19.511029632275978 49.807397231317 47.421056099299506 C 0.0 **** -0.24
9182 H 20.556718462456672 49.68535658416863 47.705149151028195 H 0.0 **** 0.06
9183 H 19.042302164767534 50.54633906111309 48.07078480120322 H 0.0 **** 0.06
9184 H 18.99325736124692 48.85300402662142 47.521601597197844 H 0.0 **** 0.06
9185 H 19.452650635582472 50.14452210426788 46.3862316855878 H 0.0 **** 0.06
9186 C 99.14273147648248 93.25873958104279 45.38416262813587 C 0.0 **** -0.24
9187 H 98.26773215196874 93.08825540911948 44.75663158392243 H 0.0 **** 0.06
9188 H 99.82881295571076 92.41786907968384 45.28693699569905 H 0.0 **** 0.06
9189 H 98.83047257493246 93.35538440058082 46.42446261781214 H 0.0 **** 0.06
9190 H 99.64243625155763 94.17506457214836 45.0690935283252 H 0.0 **** 0.06
9191 C 37.50012617708188 59.486391930152166 8.41889513480622 C 0.0 **** -0.24
9192 H 37.30046205223374 58.44738504319827 8.159321014541831 H 0.0 **** 0.06
9193 H 37.58057454192959 59.58083008502723 9.502947938239743 H 0.0 **** 0.06
9194 H 36.68465279924828 60.113600001129015 8.059513664359812 H 0.0 **** 0.06
9195 H 38.43385644077995 59.80359446337286 7.955811824687132 H 0.0 **** 0.06
9196 C 99.513043426125 49.50630901207285 6.231388983302395 C 0.0 **** -0.24
9197 H 98.81144239936879 49.33479829243197 7.047204459776765 H 0.0 **** 0.06
9198 H 99.29604936672597 50.46679575567617 5.762306118510651 H 0.0 **** 0.06
9199 H 99.414146612461 48.710462008118554 5.493101887559703 H 0.0 **** 0.06
9200 H 100.53030387631492 49.515149434239135 6.622682839704282 H 0.0 **** 0.06
9201 C 11.733743799765548 53.700887542159336 2.840845224616075 C 0.0 **** -0.24
9202 H 11.894285798247836 53.14127283209746 1.9194036903325298 H 0.0 **** 0.06
9203 H 12.653302971076656 53.70949521925283 3.4258270106649604 H 0.0 **** 0.06
9204 H 10.939751156316333 53.22712290845763 3.418746301110602 H 0.0 **** 0.06
9205 H 11.446409135174164 54.72395161324178 2.5986416955696257 H 0.0 **** 0.06
9206 C 56.82673546203108 4.089435073214702 26.22991009678009 C 0.0 **** -0.24
9207 H 56.056706541606786 4.133222416292853 25.45986920184521 H 0.0 **** 0.06
9208 H 56.36918530556369 4.228474437189675 27.21027577195514 H 0.0 **** 0.06
9209 H 57.56003681424505 4.877469251754292 26.05564830279252 H 0.0 **** 0.06
9210 H 57.322154477748825 3.119454318447538 26.194807825433827 H 0.0 **** 0.06
9211 C 82.8964700610733 34.529169060521646 49.6796547942565 C 0.0 **** -0.24
9212 H 82.595927150969 34.0691805664148 50.62131313687993 H 0.0 **** 0.06
9213 H 83.82677344567752 35.077870919757196 49.82438459420821 H 0.0 **** 0.06
9214 H 82.11782994470377 35.21513398722219 49.34589955802508 H 0.0 **** 0.06
9215 H 83.04436744534512 33.753628096598135 48.927561393207185 H 0.0 **** 0.06
9216 C 86.99624675334542 47.8003805951971 11.783931680105127 C 0.0 **** -0.24
9217 H 85.93328571486654 47.62745900725563 11.615335049357526 H 0.0 **** 0.06
9218 H 87.5019942165103 47.912929879057884 10.824746064866389 H 0.0 **** 0.06
9219 H 87.42075849487492 46.952699752741 12.322622571523425 H 0.0 **** 0.06
9220 H 87.12755264899113 48.70743418736867 12.373251937323403 H 0.0 **** 0.06
9221 C 23.00530468836695 31.022582230798662 21.14044713294544 C 0.0 **** -0.24
9222 H 21.94458337215656 30.773303466064448 21.161381090247346 H 0.0 **** 0.06
9223 H 23.524839688264784 30.465061850850958 21.919958061057798 H 0.0 **** 0.06
9224 H 23.131116790146244 32.090753196075894 21.311379473132774 H 0.0 **** 0.06
9225 H 23.42084514137323 30.758145683492415 20.167177697244483 H 0.0 **** 0.06
9226 C 85.72526485580715 56.07769579922331 43.70289515161431 C 0.0 **** -0.24
9227 H 86.0707966707829 55.10283985738809 44.04662689324513 H 0.0 **** 0.06
9228 H 86.11205578002603 56.85400306576639 44.36360969431428 H 0.0 **** 0.06
9229 H 84.63616130462049 56.101621584976186 43.71100746419465 H 0.0 **** 0.06
9230 H 86.08510623049949 56.25254721948684 42.68819612873691 H 0.0 **** 0.06
9231 C 82.93216295436508 73.77639962277031 0.14091449278476098 C 0.0 **** -0.24
9232 H 82.42141295716897 74.02581118900203 -0.7893414888871355 H 0.0 **** 0.06
9233 H 84.00578154952868 73.71428836083244 -0.039557708017686544 H 0.0 **** 0.06
9234 H 82.56873593079843 72.81668021382116 0.5084948589046832 H 0.0 **** 0.06
9235 H 82.73310998039372 74.54954808268603 0.8829146464258448 H 0.0 **** 0.06
9236 C 38.62214594271083 24.063760609897543 13.194436599588073 C 0.0 **** -0.24
9237 H 37.85364563359175 23.348293851210457 12.900765888734384 H 0.0 **** 0.06
9238 H 38.156389092014706 25.021593690785267 13.42662233882271 H 0.0 **** 0.06
9239 H 39.33082213367277 24.19232502953244 12.37609551784584 H 0.0 **** 0.06
9240 H 39.14749405108407 23.691883866964986 14.074037026116798 H 0.0 **** 0.06
9241 C 19.71037194840876 46.20521653202729 89.45212871980794 C 0.0 **** -0.24
9242 H 20.172817508688986 47.11828364066446 89.82653278438619 H 0.0 **** 0.06
9243 H 19.72761987411236 46.209659912225675 88.36215136136838 H 0.0 **** 0.06
9244 H 18.67731630509652 46.153195271851644 89.79909960974518 H 0.0 **** 0.06
9245 H 20.261742400138978 45.34077162727647 89.82170209935475 H 0.0 **** 0.06
9246 C 107.20492266947056 96.26150072966568 95.79273245636809 C 0.0 **** -0.24
9247 H 107.14310228956 95.4075459632247 95.1186528407445 H 0.0 **** 0.06
9248 H 106.60617716320834 96.06636702622303 96.68235682373104 H 0.0 **** 0.06
9249 H 106.82708086100152 97.15092067723086 95.28790712357063 H 0.0 **** 0.06
9250 H 108.2438691508566 96.42200573478637 96.08191276323912 H 0.0 **** 0.06
9251 C 43.50091108539162 84.83180820143434 78.32409934672006 C 0.0 **** -0.24
9252 H 42.821582047354354 84.66385097539381 77.48926090737604 H 0.0 **** 0.06
9253 H 43.860882676893254 85.86015928488325 78.3003013744497 H 0.0 **** 0.06
9254 H 44.34674389025267 84.14835354279342 78.24653336323513 H 0.0 **** 0.06
9255 H 42.97492027243726 84.65293016584275 79.2617182250815 H 0.0 **** 0.06
9256 C 74.92581652079537 0.34549210861176505 64.91996639304148 C 0.0 **** -0.24
9257 H 75.82888390108144 0.8902860990704937 64.64454365934992 H 0.0 **** 0.06
9258 H 75.1030696714077 -0.7250442373279782 64.81829485742108 H 0.0 **** 0.06
9259 H 74.10849714608472 0.6430011012262185 64.2625849735995 H 0.0 **** 0.06
9260 H 74.66339618915094 0.5743989903096463 65.95215968995527 H 0.0 **** 0.06
9261 C 50.928635075507145 9.760436155403596 106.38069882024081 C 0.0 **** -0.24
9262 H 50.05433686882955 10.227786394573751 105.92790388882241 H 0.0 **** 0.06
9263 H 51.33427766378995 10.417232904522036 107.15023958274784 H 0.0 **** 0.06
9264 H 51.68466173519272 9.58495562528541 105.6153524033592 H 0.0 **** 0.06
9265 H 50.63872621001843 8.809901514487459 106.82956367301136 H 0.0 **** 0.06
9266 C 78.73074173696025 45.76885325211745 59.04350686438767 C 0.0 **** -0.24
9267 H 79.54456701734894 45.138983425749586 59.40276342824595 H 0.0 **** 0.06
9268 H 77.87234493436382 45.667264262085496 59.708481699908276 H 0.0 **** 0.06
9269 H 78.44881707870195 45.45842816209347 58.036105383984655 H 0.0 **** 0.06
9270 H 79.05667215141635 46.80792973951381 59.025335750910465 H 0.0 **** 0.06
9271 C 82.95945734283933 42.529489749394884 2.381572479694806 C 0.0 **** -0.24
9272 H 83.80911649339652 43.18677560000393 2.56608398669359 H 0.0 **** 0.06
9273 H 82.18408273968362 43.08028642839659 1.8480809983324198 H 0.0 **** 0.06
9274 H 82.56408586631406 42.171758106544445 3.3318131272371296 H 0.0 **** 0.06
9275 H 83.2822357094089 41.68013931277244 1.7799398695932576 H 0.0 **** 0.06
9276 C 16.44101108028636 46.796242440121205 65.27746997189516 C 0.0 **** -0.24
9277 H 15.623449273826736 47.15358584631849 64.6512094382723 H 0.0 **** 0.06
9278 H 16.78532591719626 47.60550773530406 65.92189597261424 H 0.0 **** 0.06
9279 H 17.26237093967093 46.45918643028989 64.64589967313717 H 0.0 **** 0.06
9280 H 16.091678976712643 45.96602812403978 65.8926286617525 H 0.0 **** 0.06
9281 C 74.33995058800716 73.24109659173166 23.488701937155895 C 0.0 **** -0.24
9282 H 74.91270826796392 74.16054477210668 23.61448987092628 H 0.0 **** 0.06
9283 H 73.516411145244 73.22531921694258 24.202406155287147 H 0.0 **** 0.06
9284 H 74.98956002421693 72.38290213045343 23.662494168430843 H 0.0 **** 0.06
9285 H 73.9436528338602 73.19644634912879 22.474459712185844 H 0.0 **** 0.06
9286 C 84.41319625033067 98.67144275312556 73.3699287932966 C 0.0 **** -0.24
9287 H 83.48334630568942 98.65486371283943 72.80285119855137 H 0.0 **** 0.06
9288 H 84.32955027008704 99.39361897723589 74.18290713393566 H 0.0 **** 0.06
9289 H 85.23422899129156 98.95699357759543 72.71261166412953 H 0.0 **** 0.06
9290 H 84.60560027067527 97.68057463836126 73.78273018861893 H 0.0 **** 0.06
9291 C 89.8306772836068 44.31682450261553 67.86340032297491 C 0.0 **** -0.24
9292 H 89.55889310653598 43.61110540977868 67.07809604339936 H 0.0 **** 0.06
9293 H 89.0201610924837 45.03250058665424 68.00400668645418 H 0.0 **** 0.06
9294 H 90.73898638049627 44.847781523463084 67.57517960121085 H 0.0 **** 0.06
9295 H 90.00548357093618 43.77637448464403 68.79283742346252 H 0.0 **** 0.06
9296 C 84.303719298424 39.51283866369712 93.72379891191858 C 0.0 **** -0.24
9297 H 84.66249283121346 38.85151315750596 94.51298775454363 H 0.0 **** 0.06
9298 H 84.51040820869099 39.06384132710562 92.75234384526202 H 0.0 **** 0.06
9299 H 84.81223597094032 40.47361444118685 93.79655539976808 H 0.0 **** 0.06
9300 H 83.22994653617553 39.66054722040815 93.8345646545621 H 0.0 **** 0.06
9301 C 68.75117857027942 21.658504066982168 28.36331367336105 C 0.0 **** -0.24
9302 H 68.94323412861615 21.111186389699007 27.440767274635164 H 0.0 **** 0.06
9303 H 68.22378824042676 22.583857188388592 28.133527119511534 H 0.0 **** 0.06
9304 H 69.69842139653144 21.89117018732103 28.85109787667239 H 0.0 **** 0.06
9305 H 68.14043105735374 21.047000181191816 29.027764840424453 H 0.0 **** 0.06
9306 C 100.3141377457218 106.31238636198239 68.96254952789599 C 0.0 **** -0.24
9307 H 99.98416887724905 105.62822581846075 69.74400057306462 H 0.0 **** 0.06
9308 H 100.11489791024334 105.8702551516572 67.98571770650267 H 0.0 **** 0.06
9309 H 101.38349151997778 106.49477786060376 69.06718552424792 H 0.0 **** 0.06
9310 H 99.77369136764413 107.2543529974051 69.05182100353557 H 0.0 **** 0.06
9311 C 14.773753145442925 28.120701460727716 68.25064286643104 C 0.0 **** -0.24
9312 H 15.138754284699928 28.869763621370737 68.95261997509658 H 0.0 **** 0.06
9313 H 14.552397511913313 27.197537268072963 68.78807613434708 H 0.0 **** 0.06
9314 H 15.535349092738613 27.928178358534737 67.49516201376173 H 0.0 **** 0.06
9315 H 13.867381584167504 28.486572121674556 67.76848925726141 H 0.0 **** 0.06
9316 C 9.840439710786697 77.97314089173386 84.51611689842119 C 0.0 **** -0.24
9317 H 10.0896572160935 78.53664190968402 83.61699171276454 H 0.0 **** 0.06
9318 H 10.633521376746032 77.25426383202694 84.72488032680786 H 0.0 **** 0.06
9319 H 8.899361400468138 77.44330888359173 84.36298752705241 H 0.0 **** 0.06
9320 H 9.739564144033409 78.65824892919534 85.35740098896224 H 0.0 **** 0.06
9321 C 73.81466095209035 42.32434387750126 9.43324098499363 C 0.0 **** -0.24
9322 H 74.74110758765781 41.842657727198315 9.12302513933031 H 0.0 **** 0.06
9323 H 73.8964809859338 43.40034596792192 9.279703223694671 H 0.0 **** 0.06
9324 H 73.6340347971005 42.12054890717185 10.488681493049734 H 0.0 **** 0.06
9325 H 72.98709611038521 41.93451170350363 8.840833054396494 H 0.0 **** 0.06
9326 C 76.55287505971542 12.034114319916796 43.870976637948274 C 0.0 **** -0.24
9327 H 76.37662132189082 11.133593705687701 44.45956828199995 H 0.0 **** 0.06
9328 H 77.54850724475108 11.989120690099355 43.42829724299443 H 0.0 **** 0.06
9329 H 76.48204176181561 12.909586248982066 44.51664715869535 H 0.0 **** 0.06
9330 H 75.8059365375071 12.104488811656154 43.080913294207704 H 0.0 **** 0.06
9331 C 28.488732651185238 87.91358269100905 86.009774607221 C 0.0 **** -0.24
9332 H 27.61708555479295 88.44250317291443 86.39390385094538 H 0.0 **** 0.06
9333 H 28.62217739605405 88.1538566931319 84.95407348309112 H 0.0 **** 0.06
9334 H 28.341820996403683 86.83981747116593 86.1226419701319 H 0.0 **** 0.06
9335 H 29.37425803110758 88.22030818923281 86.56643261143086 H 0.0 **** 0.06
9336 C 50.10508079274877 85.08603166405359 57.962903549517705 C 0.0 **** -0.24
9337 H 49.705327358224906 84.1846322261444 57.500124954230955 H 0.0 **** 0.06
9338 H 50.77707549015118 84.8094130311296 58.77541147557679 H 0.0 **** 0.06
9339 H 49.285804668688016 85.68686294408974 58.35708148307981 H 0.0 **** 0.06
9340 H 50.65444313416972 85.66393866228233 57.21925012425038 H 0.0 **** 0.06
9341 C 43.99965588089805 95.04509580120344 95.65484946342619 C 0.0 **** -0.24
9342 H 43.995158154761214 94.43905403313154 94.74889471451223 H 0.0 **** 0.06
9343 H 44.83858719076801 94.7496032126381 96.28587348097466 H 0.0 **** 0.06
9344 H 43.06596450137431 94.89292893635287 96.19781318016902 H 0.0 **** 0.06
9345 H 44.097183043009466 96.09716906102963 95.3886481695661 H 0.0 **** 0.06
9346 C 103.0670036173112 58.7670899383628 76.55540577306243 C 0.0 **** -0.24
9347 H 103.06390815281964 58.433616638491856 75.51740824562154 H 0.0 **** 0.06
9348 H 104.09171172084072 58.778836708665324 76.92870759392133 H 0.0 **** 0.06
9349 H 102.46790299054601 58.08531088627552 77.1572359148168 H 0.0 **** 0.06
9350 H 102.6468183070726 59.771332278625096 76.6154350836614 H 0.0 **** 0.06
9351 C 108.83030182571044 107.94599962173936 6.847173146381536 C 0.0 **** -0.24
9352 H 109.38244631190214 107.46890292511432 7.657333074112216 H 0.0 **** 0.06
9353 H 109.10510577195018 107.48315759311993 5.8986474602154715 H 0.0 **** 0.06
9354 H 109.07471826217821 109.00806250218687 6.817729458757995 H 0.0 **** 0.06
9355 H 107.76026256185527 107.82370943978489 7.015446602653839 H 0.0 **** 0.06
9356 C 81.0113733525589 37.495772241289515 81.57959664053944 C 0.0 **** -0.24
9357 H 80.14596566228232 37.733964735003426 80.96072851509315 H 0.0 **** 0.06
9358 H 80.91510598745481 36.47815629431311 81.96193599950443 H 0.0 **** 0.06
9359 H 81.06518452644804 38.194299855145985 82.41404756547666 H 0.0 **** 0.06
9360 H 81.91912607675818 37.57406078450476 80.98019458460453 H 0.0 **** 0.06
9361 C 7.0047426225975045 90.5251919396897 75.75224689029622 C 0.0 **** -0.24
9362 H 6.210144982794063 89.95445075606881 75.27172222691524 H 0.0 **** 0.06
9363 H 6.724668792428659 90.73947427512894 76.78382316657846 H 0.0 **** 0.06
9364 H 7.156109229834854 91.46192631824442 75.2141708667859 H 0.0 **** 0.06
9365 H 7.9275696414290024 89.94560055971527 75.73872025373615 H 0.0 **** 0.06
9366 C 89.7559550560543 53.44573259820504 109.58874313991679 C 0.0 **** -0.24
9367 H 88.85079295723558 54.0460396696306 109.67511912552987 H 0.0 **** 0.06
9368 H 90.31295200022687 53.48985306183977 110.52561279045368 H 0.0 **** 0.06
9369 H 90.37423603700938 53.83580255714867 108.77963130100268 H 0.0 **** 0.06
9370 H 89.48719401764153 52.4108310336012 109.37457225090988 H 0.0 **** 0.06
9371 C 13.796741920568763 39.85055894162048 102.22321466772405 C 0.0 **** -0.24
9372 H 14.333756816838473 39.784545806882875 103.16924485297284 H 0.0 **** 0.06
9373 H 13.147989028133196 38.98135227496721 102.11193415598635 H 0.0 **** 0.06
9374 H 14.512441438323037 39.87760454435312 101.40075514706552 H 0.0 **** 0.06
9375 H 13.193757645980142 40.75852266024566 102.21089738547772 H 0.0 **** 0.06
9376 C 2.167960664694327 65.6169964381262 36.018083637491486 C 0.0 **** -0.24
9377 H 2.506660708111019 65.5416730719569 37.051362173085124 H 0.0 **** 0.06
9378 H 2.3559698271397007 64.6737464397188 35.505040883416086 H 0.0 **** 0.06
9379 H 2.7088349716877547 66.41812699928215 35.516202596745586 H 0.0 **** 0.06
9380 H 1.1001090216133855 65.83286390575532 36.0012930805504 H 0.0 **** 0.06
9381 C 38.35353063654922 75.06116486567248 105.23950756568428 C 0.0 **** -0.24
9382 H 37.75376042045693 74.15337807055715 105.17276407586166 H 0.0 **** 0.06
9383 H 37.75482514417163 75.8611019131996 105.67604548714492 H 0.0 **** 0.06
9384 H 38.681099599878806 75.35450549157537 104.24222340054443 H 0.0 **** 0.06
9385 H 39.22426139464953 74.87565400356982 105.86798151397771 H 0.0 **** 0.06
9386 C 59.24053799949891 36.641932231063436 28.596817030554007 C 0.0 **** -0.24
9387 H 60.01866203083168 37.275339061520526 29.024318736440478 H 0.0 **** 0.06
9388 H 59.649231899652364 35.65068450170895 28.395088978264027 H 0.0 **** 0.06
9389 H 58.8819957625482 37.08428516156107 27.667111573844807 H 0.0 **** 0.06
9390 H 58.41331584818792 36.55747320592906 29.30169081884793 H 0.0 **** 0.06
9391 C 90.03059892341754 68.12513614847546 56.810439079409335 C 0.0 **** -0.24
9392 H 89.6953970351757 68.74474751615344 57.64267303065466 H 0.0 **** 0.06
9393 H 91.07265172006518 67.84307688277318 56.9643496163088 H 0.0 **** 0.06
9394 H 89.93958724185103 68.68592079940828 55.879702619113196 H 0.0 **** 0.06
9395 H 89.41500138969332 67.22742392976528 56.75577374330033 H 0.0 **** 0.06
9396 C 20.940566783287508 9.854477648452972 2.4701122873105277 C 0.0 **** -0.24
9397 H 21.9047161787375 10.288688129655888 2.2054047712190084 H 0.0 **** 0.06
9398 H 21.071745060838943 9.158753732843449 3.299398967753021 H 0.0 **** 0.06
9399 H 20.533585359905885 9.32159876470496 1.61015988768672 H 0.0 **** 0.06
9400 H 20.253663563631306 10.647698391442903 2.764747095645177 H 0.0 **** 0.06
9401 C 71.90469760488338 8.26770409014191 89.08529311575901 C 0.0 **** -0.24
9402 H 71.48755943615475 7.8594992542209425 90.00585241400528 H 0.0 **** 0.06
9403 H 71.10701425269053 8.714654298651672 88.49195540029454 H 0.0 **** 0.06
9404 H 72.37638799703058 7.466939095317363 88.5154725513008 H 0.0 **** 0.06
9405 H 72.64800305830715 9.027495417297567 89.32795962288449 H 0.0 **** 0.06
9406 C 11.880216489430381 83.15625936096427 3.7508007566264183 C 0.0 **** -0.24
9407 H 11.838827861329975 84.03969704683868 3.1144355689554004 H 0.0 **** 0.06
9408 H 11.233716792302118 83.30202833473325 4.617402461906366 H 0.0 **** 0.06
9409 H 12.905714350391548 82.99748893310522 4.085393025788008 H 0.0 **** 0.06
9410 H 11.542944672040647 82.286152889936 3.1873051252320863 H 0.0 **** 0.06
9411 C 62.00462804994015 5.939368046865715 59.3570167533631 C 0.0 **** -0.24
9412 H 62.002582632566714 4.965680044677354 58.868849498578754 H 0.0 **** 0.06
9413 H 62.96851939583115 6.101158966457811 59.84028176340837 H 0.0 **** 0.06
9414 H 61.21316155845443 5.971700715135809 60.106179142163285 H 0.0 **** 0.06
9415 H 61.83510137882621 6.719224922879487 58.614541953704816 H 0.0 **** 0.06
9416 C 63.63218480289147 68.09992350043456 79.43146131647714 C 0.0 **** -0.24
9417 H 63.00885762544473 68.59343125987645 80.17800887010597 H 0.0 **** 0.06
9418 H 64.07346283270306 67.20172258340405 79.86478421424026 H 0.0 **** 0.06
9419 H 64.42429780218269 68.7775139157979 79.11557367473895 H 0.0 **** 0.06
9420 H 63.021295421056635 67.82733831703149 78.57111468657179 H 0.0 **** 0.06
9421 C 53.75175212136742 42.94016498373877 3.7215247058617535 C 0.0 **** -0.24
9422 H 53.066137726306835 42.17833549138558 3.3508583107942513 H 0.0 **** 0.06
9423 H 53.18471014372881 43.723395011075354 4.226763352145241 H 0.0 **** 0.06
9424 H 54.30223767396865 43.37137051775605 2.8858021008213086 H 0.0 **** 0.06
9425 H 54.45222400983522 42.48772620642987 4.424119321621845 H 0.0 **** 0.06
9426 C 2.383376958569926 57.47918804526165 87.05880433773979 C 0.0 **** -0.24
9427 H 2.555311568912174 56.684106830027304 87.78478109132732 H 0.0 **** 0.06
9428 H 2.0274427669237127 58.37057660552432 87.5753458636213 H 0.0 **** 0.06
9429 H 1.6342530237345159 57.15411215606349 86.33659808138822 H 0.0 **** 0.06
9430 H 3.3144752152755643 57.705623045540335 86.54122246835868 H 0.0 **** 0.06
9431 C 42.48629738192564 13.966917743986613 48.54218587801381 C 0.0 **** -0.24
9432 H 41.47440003162368 13.609305108782195 48.354513912943844 H 0.0 **** 0.06
9433 H 42.78973414088753 13.689047924849433 49.55168445337185 H 0.0 **** 0.06
9434 H 42.51291908816313 15.052369837723234 48.44035288300489 H 0.0 **** 0.06
9435 H 43.169769108462695 13.518122972084143 47.82079447430192 H 0.0 **** 0.06
9436 C 100.52995127353017 17.28260244022121 104.75453913443957 C 0.0 **** -0.24
9437 H 100.51370168311479 18.330061691646108 105.05770409325251 H 0.0 **** 0.06
9438 H 101.5628998196438 16.959867392494914 104.62055666393834 H 0.0 **** 0.06
9439 H 99.98902685561916 17.16941909452757 103.81496679937555 H 0.0 **** 0.06
9440 H 100.05501258033524 16.67463182930436 105.52418373412098 H 0.0 **** 0.06
9441 C 27.73152374497181 48.94228543171138 57.4712622210135 C 0.0 **** -0.24
9442 H 26.833751550183877 49.291218330723574 57.982400975795365 H 0.0 **** 0.06
9443 H 27.96854358404525 49.621300786334636 56.65116485392766 H 0.0 **** 0.06
9444 H 27.559088078955426 47.94195556097783 57.07700616001584 H 0.0 **** 0.06
9445 H 28.56354053297386 48.91760331229391 58.17439284810097 H 0.0 **** 0.06
9446 C 82.38750718953719 98.80453247939215 77.66334210268812 C 0.0 **** -0.24
9447 H 83.15887890264867 98.56490591331544 78.3949394174293 H 0.0 **** 0.06
9448 H 82.79805440680542 99.48222419296587 76.91346085350733 H 0.0 **** 0.06
9449 H 81.54727412804658 99.28346945709086 78.16561355780493 H 0.0 **** 0.06
9450 H 82.0491083723636 97.88883704017553 77.17865564934039 H 0.0 **** 0.06
9451 C 26.498090293351122 61.677256562995524 64.19532450794463 C 0.0 **** -0.24
9452 H 25.791199713348256 62.0810469356953 63.471242431588394 H 0.0 **** 0.06
9453 H 26.974403765354612 60.78911649923509 63.78023709541287 H 0.0 **** 0.06
9454 H 25.968794848380792 61.412939474243444 65.11120807553516 H 0.0 **** 0.06
9455 H 27.257719177276535 62.42708792766905 64.41784592509453 H 0.0 **** 0.06
9456 C 108.42143718432871 93.72337284669547 90.56975560930778 C 0.0 **** -0.24
9457 H 107.60935229505483 93.48613187540737 91.25706828962677 H 0.0 **** 0.06
9458 H 108.8336375274427 94.7019152750016 90.81860801508537 H 0.0 **** 0.06
9459 H 108.04046427683471 93.737667959173 89.54876533503125 H 0.0 **** 0.06
9460 H 109.20220787335032 92.96715524621014 90.65584842972987 H 0.0 **** 0.06
9461 C 6.455224543829857 95.26223203721099 54.01022652206235 C 0.0 **** -0.24
9462 H 5.726751670509515 94.46188229096003 54.14181467467986 H 0.0 **** 0.06
9463 H 6.819892213587565 95.25547571559156 52.982994945181396 H 0.0 **** 0.06
9464 H 7.290361596283461 95.1080477465413 54.69427566017559 H 0.0 **** 0.06
9465 H 5.98321276460085 96.22164737958863 54.22324288641171 H 0.0 **** 0.06
9466 C 91.74515138382083 60.41299990045519 80.83298034336013 C 0.0 **** -0.24
9467 H 91.06024581972167 61.15828164482548 81.23711440692358 H 0.0 **** 0.06
9468 H 92.05455364928298 60.710188783001826 79.83133328368285 H 0.0 **** 0.06
9469 H 91.24352763824129 59.446484815051505 80.78697968518526 H 0.0 **** 0.06
9470 H 92.62093996548742 60.337626317560975 81.47818813161626 H 0.0 **** 0.06
9471 C 34.56956748495378 89.74373508428202 75.69229873983284 C 0.0 **** -0.24
9472 H 33.87094140742454 90.15613341600388 76.42142435725361 H 0.0 **** 0.06
9473 H 35.39199021384462 89.25427259800699 76.21356946769436 H 0.0 **** 0.06
9474 H 34.96135132621163 90.54913445317071 75.07065481724189 H 0.0 **** 0.06
9475 H 34.05235807907718 89.01859243565266 75.06462096101919 H 0.0 **** 0.06
9476 C 16.880987641275187 96.18291339231492 75.12526985877008 C 0.0 **** -0.24
9477 H 16.876621480486236 95.30205353364815 74.48413753706461 H 0.0 **** 0.06
9478 H 17.12922640605998 97.06225529153514 74.53144819121249 H 0.0 **** 0.06
9479 H 17.622342530351904 96.05510650396285 75.91337971110889 H 0.0 **** 0.06
9480 H 15.894354161261099 96.31238645149026 75.57207748266518 H 0.0 **** 0.06
9481 C 30.79698193552173 33.442693504859164 42.006243496629594 C 0.0 **** -0.24
9482 H 30.428895944030728 33.325371617682265 40.98699075945148 H 0.0 **** 0.06
9483 H 31.688618100092583 32.8290169217 42.14242707338466 H 0.0 **** 0.06
9484 H 30.02665495776216 33.12638262288806 42.70898711779848 H 0.0 **** 0.06
9485 H 31.04549689422913 34.48883764819428 42.1844192557679 H 0.0 **** 0.06
9486 C 34.084325591583394 107.02019104187168 91.62110639970626 C 0.0 **** -0.24
9487 H 34.55909182542629 107.72176377186719 90.93381848064976 H 0.0 **** 0.06
9488 H 33.01593833939584 106.96983660391753 91.40681206293618 H 0.0 **** 0.06
9489 H 34.2338056016051 107.36039597937125 92.64568444828126 H 0.0 **** 0.06
9490 H 34.52794491711782 106.03326344513525 91.49687844512673 H 0.0 **** 0.06
9491 C 1.0377973055730392 71.33493805670167 70.12598746316979 C 0.0 **** -0.24
9492 H 1.575971908535971 70.60030084943304 69.52627988703239 H 0.0 **** 0.06
9493 H 1.2024676353842088 71.12858593950523 71.18401789762981 H 0.0 **** 0.06
9494 H -0.02730409680030199 71.27466494970881 69.90446777754482 H 0.0 **** 0.06
9495 H 1.4031279188824373 72.33435276551046 69.88881523009172 H 0.0 **** 0.06
9496 C 40.80803356325475 73.60946125495586 51.92981905808054 C 0.0 **** -0.24
9497 H 41.54269545473568 74.28702502159061 51.496217803844985 H 0.0 **** 0.06
9498 H 40.41100865051453 72.95779997858243 51.15154747457967 H 0.0 **** 0.06
9499 H 39.995281871092345 74.18782269394465 52.36952874803114 H 0.0 **** 0.06
9500 H 41.283090792341966 73.00579502361298 52.702781894749535 H 0.0 **** 0.06
9501 C 100.26337183147174 88.83472143771095 14.277918522576588 C 0.0 **** -0.24
9502 H 100.69776019943225 88.03743235684931 13.674239166621494 H 0.0 **** 0.06
9503 H 101.03572849268204 89.56263379506362 14.528065867067294 H 0.0 **** 0.06
9504 H 99.8504036980309 88.41336369618574 15.194136733443091 H 0.0 **** 0.06
9505 H 99.47094851351446 89.32600924303989 13.713540611182307 H 0.0 **** 0.06
9506 C 105.35567362098755 19.13973873482992 95.1281227845145 C 0.0 **** -0.24
9507 H 106.01336174232821 18.825988811438812 94.31714053267149 H 0.0 **** 0.06
9508 H 104.77206622664932 20.00376475172815 94.8084004407921 H 0.0 **** 0.06
9509 H 105.95395426561278 19.406586780028388 95.99862907181058 H 0.0 **** 0.06
9510 H 104.68244588772174 18.322021797480197 95.38610788141622 H 0.0 **** 0.06
9511 C 55.69096229929727 84.59958619145445 44.562607064924805 C 0.0 **** -0.24
9512 H 56.744316658453215 84.85914555540569 44.457310390852996 H 0.0 **** 0.06
9513 H 55.28099814175721 84.34238853315566 43.585757723963695 H 0.0 **** 0.06
9514 H 55.14685307020312 85.44931494141218 44.97352068630224 H 0.0 **** 0.06
9515 H 55.593166845480454 83.74616407166175 45.23369767400072 H 0.0 **** 0.06
9516 C 8.991768658074136 0.571399787971572 35.12611996860369 C 0.0 **** -0.24
9517 H 8.052011208956117 0.28172144448528513 35.59833745431223 H 0.0 **** 0.06
9518 H 8.806543495104023 0.8404492766143363 34.08575084054084 H 0.0 **** 0.06
9519 H 9.691770169178426 -0.2623138031380705 35.16792107657437 H 0.0 **** 0.06
9520 H 9.413819858903253 1.4277384363258676 35.653666978940464 H 0.0 **** 0.06
9521 C 95.2288608100241 59.09847581908846 42.690795196524164 C 0.0 **** -0.24
9522 H 95.1918074985112 59.75327231366447 43.56191890185849 H 0.0 **** 0.06
9523 H 95.60705111360883 58.120420366036484 42.98901912400723 H 0.0 **** 0.06
9524 H 95.8896602928593 59.5312691802705 41.94059139261134 H 0.0 **** 0.06
9525 H 94.22739849155849 58.99005747678348 42.27559223391262 H 0.0 **** 0.06
9526 C 42.81763494516895 62.34530717241182 93.41190634002837 C 0.0 **** -0.24
9527 H 41.86142784929328 62.394417798179745 93.93413815379864 H 0.0 **** 0.06
9528 H 43.10079453656465 61.30169884417526 93.27191274847388 H 0.0 **** 0.06
9529 H 43.579899483401334 62.854044994676684 94.00224901875941 H 0.0 **** 0.06
9530 H 42.72476467460521 62.83079668660136 92.44008797214201 H 0.0 **** 0.06
9531 C 69.34291119274229 107.94413205672525 68.89763332164864 C 0.0 **** -0.24
9532 H 70.04531076386633 108.75233290637402 68.69330490360625 H 0.0 **** 0.06
9533 H 68.63258660772298 108.26482267018183 69.6597805423877 H 0.0 **** 0.06
9534 H 69.88875655207725 107.06942774018462 69.2520597511201 H 0.0 **** 0.06
9535 H 68.8055317035943 107.69058704497222 67.98308690834165 H 0.0 **** 0.06
9536 C 3.510743944946741 43.34363996616804 47.9564918595856 C 0.0 **** -0.24
9537 H 4.171846083785592 43.55146237404688 47.115998194260435 H 0.0 **** 0.06
9538 H 3.870633290853407 42.46503344356006 48.49344547398557 H 0.0 **** 0.06
9539 H 2.501752327501266 43.15702477885873 47.58876430876302 H 0.0 **** 0.06
9540 H 3.500113621645193 44.20108122889087 48.63042836269071 H 0.0 **** 0.06
9541 C 27.037358197410413 9.020183353722445 3.4827916042450795 C 0.0 **** -0.24
9542 H 27.54619784497575 9.779942529218687 4.077659796909359 H 0.0 **** 0.06
9543 H 26.856730972303666 8.13867382831188 4.097037947389595 H 0.0 **** 0.06
9544 H 27.661313632774664 8.748644340132813 2.6314238628270914 H 0.0 **** 0.06
9545 H 26.086299724197545 9.416255093997165 3.1252124141845172 H 0.0 **** 0.06
9546 C 57.271738391791814 101.46627899089783 57.078076257228226 C 0.0 **** -0.24
9547 H 56.62587023470155 102.17720391714971 56.56327444062511 H 0.0 **** 0.06
9548 H 56.66035741953738 100.76621740962428 57.64690656561616 H 0.0 **** 0.06
9549 H 57.93636825172558 102.00316294212884 57.754879502214614 H 0.0 **** 0.06
9550 H 57.865671928633105 100.91908004833606 56.345251455812495 H 0.0 **** 0.06
9551 C 53.06526328408731 10.450245759104183 21.946126071879547 C 0.0 **** -0.24
9552 H 53.01880347588815 10.21847776795709 23.010643801140645 H 0.0 **** 0.06
9553 H 53.34154155137156 11.496448889400636 21.81409879290436 H 0.0 **** 0.06
9554 H 52.09140510081954 10.27128324051009 21.491785387769767 H 0.0 **** 0.06
9555 H 53.811320778346044 9.814586149708203 21.46892176158576 H 0.0 **** 0.06
9556 C 20.15094037617999 87.86737436684713 60.46440108858701 C 0.0 **** -0.24
9557 H 20.126085743938035 87.35498398217545 59.50283612055128 H 0.0 **** 0.06
9558 H 20.11152760675091 88.9455876294514 60.30231540269102 H 0.0 **** 0.06
9559 H 21.072065478894956 87.6115057114004 60.987603361852365 H 0.0 **** 0.06
9560 H 19.294240452746664 87.55880359579007 61.06283416142395 H 0.0 **** 0.06
9561 C 35.6835215018705 79.42544389270132 28.691089328741327 C 0.0 **** -0.24
9562 H 34.70832892770029 79.63685773060489 29.131144504046176 H 0.0 **** 0.06
9563 H 35.59779818436624 79.41820371067169 27.604292210114068 H 0.0 **** 0.06
9564 H 36.03348808671953 78.45158921067323 29.035495164353677 H 0.0 **** 0.06
9565 H 36.39330077740634 80.19525667035099 28.995573450791255 H 0.0 **** 0.06
9566 C 31.485947240776213 81.87587550989545 55.25238322598179 C 0.0 **** -0.24
9567 H 31.742089973712893 82.43280935895808 54.35032528973224 H 0.0 **** 0.06
9568 H 30.90734050284894 82.51445471848788 55.92048781483871 H 0.0 **** 0.06
9569 H 32.39966455635036 81.55819464905738 55.75438361090369 H 0.0 **** 0.06
9570 H 30.89494363360744 81.00043806539412 54.982546424371094 H 0.0 **** 0.06
9571 C 24.625065233982127 42.17547454850853 87.67349306032021 C 0.0 **** -0.24
9572 H 23.83097402436674 42.355790134332494 86.9494327957305 H 0.0 **** 0.06
9573 H 25.101953340667123 43.12075836973253 87.9328462973694 H 0.0 **** 0.06
9574 H 25.3642916192247 41.50180197982496 87.24098589534611 H 0.0 **** 0.06
9575 H 24.20245046401952 41.722868032324016 88.57114110761141 H 0.0 **** 0.06
9576 C 79.2268487233298 108.70671185571587 30.227782666966988 C 0.0 **** -0.24
9577 H 80.2767629655171 108.411888634521 30.24458403601136 H 0.0 **** 0.06
9578 H 79.08144234734633 109.4867181375633 29.48061800316438 H 0.0 **** 0.06
9579 H 78.93942927921591 109.08406099598054 31.20873909411341 H 0.0 **** 0.06
9580 H 78.61177938172014 107.84265497535256 29.975924993961 H 0.0 **** 0.06
9581 C 49.901779813974656 77.7868873938495 37.2465585940206 C 0.0 **** -0.24
9582 H 50.493341498149306 78.68913849266136 37.09101247058658 H 0.0 **** 0.06
9583 H 50.166976585786756 77.04516554624945 36.49234158489267 H 0.0 **** 0.06
9584 H 48.84254421108392 78.0286640321786 37.16245253779152 H 0.0 **** 0.06
9585 H 50.10498224793764 77.38582974419072 38.23844885553683 H 0.0 **** 0.06
9586 C 74.30294648692139 25.4138931859365 2.17507104871828 C 0.0 **** -0.24
9587 H 74.34585750907357 26.494343790035707 2.3158440775902704 H 0.0 **** 0.06
9588 H 74.35692341721051 24.919704292381248 3.145710915017844 H 0.0 **** 0.06
9589 H 75.14129554374631 25.094409699260943 1.5571123461612615 H 0.0 **** 0.06
9590 H 73.36653085545501 25.149051226079358 1.6835820984056795 H 0.0 **** 0.06
9591 C 74.44775589536107 19.406133058563114 68.70212060857801 C 0.0 **** -0.24
9592 H 73.36838477681906 19.33773049341346 68.56868181231337 H 0.0 **** 0.06
9593 H 74.94728827699413 19.029569526742762 67.80892173890621 H 0.0 **** 0.06
9594 H 74.74599821149565 18.810516394874867 69.56405279930922 H 0.0 **** 0.06
9595 H 74.72860894294834 20.446835158520457 68.86375465904905 H 0.0 **** 0.06
9596 C 6.602830862228984 49.864442787510995 91.77597505219481 C 0.0 **** -0.24
9597 H 5.550454241013455 49.701317120026886 91.5437546318896 H 0.0 **** 0.06
9598 H 6.708496617105908 50.774943182663094 92.36550759861923 H 0.0 **** 0.06
9599 H 7.167512856802119 49.96324702703288 90.84780484639356 H 0.0 **** 0.06
9600 H 6.98498273505794 49.01648884831849 92.34441760066277 H 0.0 **** 0.06
9601 C 74.19821041024665 69.30541191845157 102.43915680175081 C 0.0 **** -0.24
9602 H 74.8608852265061 70.14023005983555 102.2093271678755 H 0.0 **** 0.06
9603 H 73.32077983315645 69.35025926050926 101.79420009789104 H 0.0 **** 0.06
9604 H 73.88705734804239 69.36522983507098 103.48219201816676 H 0.0 **** 0.06
9605 H 74.72647526504073 68.36628570424 102.2714752236065 H 0.0 **** 0.06
9606 C 8.178137145579555 6.521545480754014 31.31453667372837 C 0.0 **** -0.24
9607 H 8.487581747477307 6.902598127904497 32.287849979590234 H 0.0 **** 0.06
9608 H 7.373980875500749 5.79744892528322 31.446418243796238 H 0.0 **** 0.06
9609 H 9.025684793958732 6.0395437964708805 30.8263663484012 H 0.0 **** 0.06
9610 H 7.825963311736729 7.34769925191344 30.69693454059056 H 0.0 **** 0.06
9611 C 53.73881334239377 19.702249897414806 0.6687528929195707 C 0.0 **** -0.24
9612 H 53.10001328631654 20.438195342655806 1.156265575857276 H 0.0 **** 0.06
9613 H 53.21001522267977 19.264804594790892 -0.17819340355198676 H 0.0 **** 0.06
9614 H 53.99829798632999 18.917639808733952 1.3800254348188616 H 0.0 **** 0.06
9615 H 54.64933522534835 20.188390844353755 0.3173602617707729 H 0.0 **** 0.06
9616 C 100.5059975738476 54.578755753193455 30.456095383919575 C 0.0 **** -0.24
9617 H 100.33054838505234 53.520887391302956 30.263627424501777 H 0.0 **** 0.06
9618 H 101.54532091015835 54.7272726035002 30.74850193947887 H 0.0 **** 0.06
9619 H 99.85100723502529 54.915565326305945 31.258691021233346 H 0.0 **** 0.06
9620 H 100.29697991361093 55.15119437947744 29.552157045963327 H 0.0 **** 0.06
9621 C 32.35374968601949 9.28228567261877 103.13162841491521 C 0.0 **** -0.24
9622 H 31.31482967361073 9.536363570367882 102.92103282885284 H 0.0 **** 0.06
9623 H 32.54212615264479 9.381975791576195 104.20106476208241 H 0.0 **** 0.06
9624 H 33.01157455199972 9.957150820489147 102.58319119544694 H 0.0 **** 0.06
9625 H 32.54655024382242 8.255183214497976 102.82285290321397 H 0.0 **** 0.06
9626 C 49.09876841320664 92.04181516731131 98.74466403912527 C 0.0 **** -0.24
9627 H 48.54427749692754 92.95855099705986 98.94675841187126 H 0.0 **** 0.06
9628 H 48.3981151841404 91.23347391250803 98.53343578912222 H 0.0 **** 0.06
9629 H 49.70120500010781 91.78254893751358 99.61575535817036 H 0.0 **** 0.06
9630 H 49.75014509503749 92.19381554493904 97.88442562311246 H 0.0 **** 0.06
9631 C 0.5675911442859984 94.2488655577142 73.48696563083793 C 0.0 **** -0.24
9632 H -0.29584922267980573 94.66939183429864 72.9724899803752 H 0.0 **** 0.06
9633 H 0.6248667007170638 94.65800163922319 74.49600481588504 H 0.0 **** 0.06
9634 H 1.4764592021127356 94.50410179338527 72.94028631256205 H 0.0 **** 0.06
9635 H 0.4678556568538994 93.16440083236466 73.53901355046806 H 0.0 **** 0.06
9636 C 3.100877652196459 59.79111190685812 37.76075367894924 C 0.0 **** -0.24
9637 H 2.346810802029509 60.49794372446608 37.4134730049027 H 0.0 **** 0.06
9638 H 2.839411715351787 59.44347879010627 38.75992314210714 H 0.0 **** 0.06
9639 H 4.073454365023835 60.28167251749264 37.78865798343713 H 0.0 **** 0.06
9640 H 3.1420152562499055 58.94153757174273 37.07819300605843 H 0.0 **** 0.06
9641 C 59.25183119385929 14.293489009839334 100.2054965710523 C 0.0 **** -0.24
9642 H 58.564777701799045 15.130092184394272 100.33294261858768 H 0.0 **** 0.06
9643 H 59.98616892723891 14.301769428901366 101.01074955863014 H 0.0 **** 0.06
9644 H 59.761923371472676 14.38504246353034 99.24600094649054 H 0.0 **** 0.06
9645 H 58.693150838238466 13.358121975557282 100.23121844220098 H 0.0 **** 0.06
9646 C 102.83586044342199 62.87270564753172 29.753001134480535 C 0.0 **** -0.24
9647 H 102.56531047583164 61.818400619290884 29.699714544315363 H 0.0 **** 0.06
9648 H 103.80512738450336 63.02369122791103 29.279028818382344 H 0.0 **** 0.06
9649 H 102.8889225233373 63.18213347357694 30.797098222433434 H 0.0 **** 0.06
9650 H 102.08258706712441 63.46745196975769 29.236354355361478 H 0.0 **** 0.06
9651 C 29.885202961523106 51.310801211300046 91.29555734912881 C 0.0 **** -0.24
9652 H 29.367180448502694 51.67849673400752 90.41020684974683 H 0.0 **** 0.06
9653 H 29.205494517200066 50.694069492862866 91.88408628852396 H 0.0 **** 0.06
9654 H 30.222341160404937 52.15612824697696 91.89580140137981 H 0.0 **** 0.06
9655 H 30.746349604431373 50.714907356002776 90.99140296564786 H 0.0 **** 0.06
9656 C 102.48481943427804 73.38064622667093 74.46989672719221 C 0.0 **** -0.24
9657 H 103.44808225968914 72.89356973455801 74.31642323891845 H 0.0 **** 0.06
9658 H 102.07523542096713 73.68707308131201 73.5074454943989 H 0.0 **** 0.06
9659 H 102.61958442175445 74.2571969640876 75.10388496298964 H 0.0 **** 0.06
9660 H 101.79896847068328 72.68549103178913 74.95348285565689 H 0.0 **** 0.06
9661 C 91.67375988116646 30.438304818102438 47.67258437104678 C 0.0 **** -0.24
9662 H 92.49470935988788 30.61327017482597 48.36902174415019 H 0.0 **** 0.06
9663 H 91.6365591137467 29.37903664997981 47.4155240977359 H 0.0 **** 0.06
9664 H 91.8328839635634 31.026586097224737 46.768782659488295 H 0.0 **** 0.06
9665 H 90.73431842211012 30.73305851195093 48.137795889378424 H 0.0 **** 0.06
9666 C 28.708915985851228 62.55918865412109 2.2696663366117775 C 0.0 **** -0.24
9667 H 27.93171552964982 63.31960264901126 2.1901685710192567 H 0.0 **** 0.06
9668 H 28.589474182452598 61.83354815527244 1.4649972146828532 H 0.0 **** 0.06
9669 H 28.62611545490568 62.053748706368765 3.2316259897560258 H 0.0 **** 0.06
9670 H 29.687714366125697 63.031458781521195 2.1904546955829858 H 0.0 **** 0.06
9671 C 83.1964568061606 40.509921662740545 14.751253255318034 C 0.0 **** -0.24
9672 H 83.96701163219814 39.827527851483964 15.107831063834453 H 0.0 **** 0.06
9673 H 83.4305852701566 40.821478129785994 13.732869075606985 H 0.0 **** 0.06
9674 H 83.1563524000725 41.38411376732172 15.400641148346097 H 0.0 **** 0.06
9675 H 82.2298514557759 40.003519064969474 14.762894035215389 H 0.0 **** 0.06
9676 C 24.663498750925527 23.924400527951605 39.937512341634886 C 0.0 **** -0.24
9677 H 25.460890050185526 24.52558997644431 39.501430706111535 H 0.0 **** 0.06
9678 H 23.816703890539912 24.565832812909406 40.18224886517794 H 0.0 **** 0.06
9679 H 25.02802710527166 23.4410965240249 40.844356439611886 H 0.0 **** 0.06
9680 H 24.349271013966785 23.16363908599807 39.22234672198883 H 0.0 **** 0.06
9681 C 0.06130359065888058 58.73946151647301 51.993184600726124 C 0.0 **** -0.24
9682 H -0.08815607778048218 57.94259897636751 51.26395979842965 H 0.0 **** 0.06
9683 H 1.0459447414228435 58.633198796787475 52.44955172315326 H 0.0 **** 0.06
9684 H -0.7053953078281978 58.67417720700634 52.76506840738975 H 0.0 **** 0.06
9685 H -0.0061893501548127006 59.70586628520432 51.49411810975704 H 0.0 **** 0.06
9686 C 8.723495109097087 58.530033765349145 9.634036754633419 C 0.0 **** -0.24
9687 H 8.130192577632783 58.426383261133026 10.542260030376747 H 0.0 **** 0.06
9688 H 9.002538019955125 59.57572226913953 9.500805682067663 H 0.0 **** 0.06
9689 H 8.137395287771994 58.19726875087619 8.777495863447328 H 0.0 **** 0.06
9690 H 9.624320274849538 57.92148433372586 9.716707793201596 H 0.0 **** 0.06
9691 C 44.209297651163126 93.2109570069381 65.885173166421 C 0.0 **** -0.24
9692 H 43.95494997842928 92.5084062744562 65.09078934665109 H 0.0 **** 0.06
9693 H 45.23273001053201 93.56073859477502 65.74746354158378 H 0.0 **** 0.06
9694 H 44.12238826063458 92.71269623052551 66.85130973857866 H 0.0 **** 0.06
9695 H 43.526737638278576 94.06003428310888 65.85132845543399 H 0.0 **** 0.06
9696 C 84.16903761127105 19.741765936159197 27.696150928327597 C 0.0 **** -0.24
9697 H 84.66461962076676 18.99418820108542 28.31514191493619 H 0.0 **** 0.06
9698 H 84.00232072998432 19.33479680916963 26.69859717249497 H 0.0 **** 0.06
9699 H 84.79844652998474 20.629662514669292 27.626623926038633 H 0.0 **** 0.06
9700 H 83.2129060917772 20.008405055964715 28.145428028298554 H 0.0 **** 0.06
9701 C 0.11044301638747811 63.47133002467211 88.50293089674403 C 0.0 **** -0.24
9702 H -0.8095627306398114 63.78272301594903 88.99663287665317 H 0.0 **** 0.06
9703 H -0.08711427145021844 62.59616150558932 87.8843793488303 H 0.0 **** 0.06
9704 H 0.86064209095764 63.22415314029671 89.25469006427727 H 0.0 **** 0.06
9705 H 0.4789264455250759 64.28387402921472 87.87648370553205 H 0.0 **** 0.06
9706 C 4.7387747300055025 106.43377168268871 92.08301475109702 C 0.0 **** -0.24
9707 H 4.272309459665422 107.07138041058077 91.3310358953108 H 0.0 **** 0.06
9708 H 5.5151956055058236 105.82914985740577 91.61331273799347 H 0.0 **** 0.06
9709 H 3.9848272267422544 105.78058327839992 92.5228533082091 H 0.0 **** 0.06
9710 H 5.18144578302207 107.05400193754738 92.8618148455053 H 0.0 **** 0.06
9711 C 22.642939953931148 86.5832528250651 54.27975506391928 C 0.0 **** -0.24
9712 H 22.67653844919647 85.91829517663754 53.41606797518739 H 0.0 **** 0.06
9713 H 22.699404394857027 85.99386843630508 55.19528043470592 H 0.0 **** 0.06
9714 H 21.709663181439964 87.14618220474811 54.26751415323386 H 0.0 **** 0.06
9715 H 23.484104383653914 87.2748540966512 54.23882928949041 H 0.0 **** 0.06
9716 C 45.94696261080086 6.9718117854949355 26.530636625741636 C 0.0 **** -0.24
9717 H 46.895541609008944 6.647853417230635 26.960242006341957 H 0.0 **** 0.06
9718 H 45.71098161657899 6.35421539439929 25.66410761550941 H 0.0 **** 0.06
9719 H 46.024429866867344 8.014777566432144 26.224667620201956 H 0.0 **** 0.06
9720 H 45.158143326268956 6.869565243188049 27.276807994543418 H 0.0 **** 0.06
9721 C 39.92149496796287 44.72425932154914 105.87406102864276 C 0.0 **** -0.24
9722 H 40.59450154169366 45.340703009724166 105.27797781133629 H 0.0 **** 0.06
9723 H 39.797720991711856 45.17134840825648 106.86077083881062 H 0.0 **** 0.06
9724 H 40.34162740123753 43.72348886776018 105.97813859312575 H 0.0 **** 0.06
9725 H 38.95254043034345 44.66216541597689 105.3787365765107 H 0.0 **** 0.06
9726 C 44.957442615101456 90.81766252106667 103.61520358262368 C 0.0 **** -0.24
9727 H 45.86168607706625 90.22851979459244 103.45570883100895 H 0.0 **** 0.06
9728 H 45.10287841356471 91.82101169988424 103.21493402850614 H 0.0 **** 0.06
9729 H 44.74775327515795 90.87847450290025 104.68251426061838 H 0.0 **** 0.06
9730 H 44.12005805104023 90.3407148655941 103.10607896221765 H 0.0 **** 0.06
9731 C 25.81092311115611 81.64234009943095 78.23333469832778 C 0.0 **** -0.24
9732 H 26.387279052294016 82.13365384075394 79.01649269071686 H 0.0 **** 0.06
9733 H 25.146402034756914 80.90254394996856 78.68014369613434 H 0.0 **** 0.06
9734 H 26.490020068984954 81.14795386512583 77.53765840252748 H 0.0 **** 0.06
9735 H 25.220359475646006 82.3854913063578 77.69685657545699 H 0.0 **** 0.06
9736 C 60.172775636860734 26.411610002678827 59.16586935877736 C 0.0 **** -0.24
9737 H 59.23695198933976 26.236920357068527 58.63558126600532 H 0.0 **** 0.06
9738 H 60.16081254483069 27.408753840947156 59.60624184504573 H 0.0 **** 0.06
9739 H 61.006770142538926 26.332292293977815 58.467939010782295 H 0.0 **** 0.06
9740 H 60.287244475562346 25.66742411637574 59.95437943654342 H 0.0 **** 0.06
9741 C 101.06751391003537 101.69124116613096 106.43184023871254 C 0.0 **** -0.24
9742 H 101.50764343285405 101.12463415129554 107.25247314192762 H 0.0 **** 0.06
9743 H 101.62474531277076 102.61739900621637 106.28935618385822 H 0.0 **** 0.06
9744 H 100.02935935258911 101.92371088085093 106.66705240215413 H 0.0 **** 0.06
9745 H 101.10855656238043 101.09783389427929 105.51860195667507 H 0.0 **** 0.06
9746 C 18.360963307134085 60.69421900284675 76.53077102544444 C 0.0 **** -0.24
9747 H 18.665759879153455 61.663411884231664 76.92626577750747 H 0.0 **** 0.06
9748 H 17.465703616526326 60.81683731066681 75.9208532267049 H 0.0 **** 0.06
9749 H 18.146926253761933 60.01654789608318 77.3574044917217 H 0.0 **** 0.06
9750 H 19.16418504053604 60.282385600391876 75.92030568972541 H 0.0 **** 0.06
9751 C 18.470742236563524 8.159050955865462 92.68983288107927 C 0.0 **** -0.24
9752 H 18.88259615073028 8.177574662634642 93.69917232855806 H 0.0 **** 0.06
9753 H 17.598333169964306 8.811202646501574 92.64137167780319 H 0.0 **** 0.06
9754 H 18.178599466495882 7.140649358570636 92.43607001632802 H 0.0 **** 0.06
9755 H 19.224428786017 8.50768857316907 91.98380932747614 H 0.0 **** 0.06
9756 C 14.345289573171272 10.147443611371472 17.184078051688164 C 0.0 **** -0.24
9757 H 15.08425681944874 9.520576667153023 17.68351886400313 H 0.0 **** 0.06
9758 H 14.782860121254373 10.57771871010057 16.28336932673072 H 0.0 **** 0.06
9759 H 14.034833602600713 10.947438787534864 17.856129142071797 H 0.0 **** 0.06
9760 H 13.478347745662859 9.543541262981776 16.91503026240731 H 0.0 **** 0.06
9761 C 77.92743539266644 79.82177415426986 2.464104012721293 C 0.0 **** -0.24
9762 H 78.27840552739562 80.51498516883714 1.700607945232946 H 0.0 **** 0.06
9763 H 76.83884502396046 79.85199396708107 2.5100238651504014 H 0.0 **** 0.06
9764 H 78.34065685468616 80.10709848587139 3.4315025389030325 H 0.0 **** 0.06
9765 H 78.25259006094888 78.81079559945503 2.2135849742580263 H 0.0 **** 0.06
9766 C 81.1792067755278 97.50621286803741 97.22975456688707 C 0.0 **** -0.24
9767 H 81.58304454409549 96.6143435474444 97.7085311506669 H 0.0 **** 0.06
9768 H 81.51543583070692 97.54598740897904 96.1932880160827 H 0.0 **** 0.06
9769 H 81.52733141261317 98.39325766843223 97.75957685275495 H 0.0 **** 0.06
9770 H 80.08966219829922 97.47159183839074 97.25737538782279 H 0.0 **** 0.06
9771 C 32.40699674397797 64.12196659528502 55.81176407511422 C 0.0 **** -0.24
9772 H 32.909196185981266 63.304542637864756 55.29393236587911 H 0.0 **** 0.06
9773 H 31.44644825928188 63.7743556420711 56.19422084286839 H 0.0 **** 0.06
9774 H 32.24463790021267 64.94585360601184 55.11691685750493 H 0.0 **** 0.06
9775 H 33.02651278905141 64.46202234716242 56.64080855641369 H 0.0 **** 0.06
9776 C 54.351199480182316 91.2004144193237 104.53353868820116 C 0.0 **** -0.24
9777 H 54.12925145661649 92.26711228016893 104.56992038697035 H 0.0 **** 0.06
9778 H 54.78351454935594 90.88698664281966 105.48375843681444 H 0.0 **** 0.06
9779 H 55.05960862977821 91.00412992405671 103.7286463084497 H 0.0 **** 0.06
9780 H 53.43127915537667 90.64425567100457 104.35191564912589 H 0.0 **** 0.06
9781 C 95.74855412680957 65.73065158835226 65.21199923238493 C 0.0 **** -0.24
9782 H 96.12502535794775 65.50713165538605 64.2134942775553 H 0.0 **** 0.06
9783 H 94.8893614028169 65.09487591172328 65.42681319476605 H 0.0 **** 0.06
9784 H 95.44795558354404 66.7772396461537 65.25990342166023 H 0.0 **** 0.06
9785 H 96.53295440386401 65.54373537298673 65.945864636041 H 0.0 **** 0.06
9786 C 88.0753889966922 82.06993435367912 101.23663106406208 C 0.0 **** -0.24
9787 H 88.77923669154725 82.68407906912253 100.67471597684802 H 0.0 **** 0.06
9788 H 87.05676732868801 82.38049273427272 101.00316313282825 H 0.0 **** 0.06
9789 H 88.25783666908899 82.19150306728599 102.30386848210934 H 0.0 **** 0.06
9790 H 88.2089762890497 81.02313426819678 100.96175484881311 H 0.0 **** 0.06
9791 C 21.35080113706229 20.45454180071079 69.83154597534491 C 0.0 **** -0.24
9792 H 20.569199659825784 19.878525337078074 70.3287985465448 H 0.0 **** 0.06
9793 H 20.92887259451635 20.967926870553196 68.96820543939009 H 0.0 **** 0.06
9794 H 22.143107146793852 19.78199501414927 69.50406646310384 H 0.0 **** 0.06
9795 H 21.75994333619306 21.1872290696313 70.5266825500559 H 0.0 **** 0.06
9796 C 30.544424993765148 19.58436540306869 77.44686108635207 C 0.0 **** -0.24
9797 H 30.759814842930297 20.225833376379285 78.30168383983317 H 0.0 **** 0.06
9798 H 31.438912161927703 19.488562340584004 76.8295933554108 H 0.0 **** 0.06
9799 H 29.74121752262178 20.024242733118005 76.85503881991445 H 0.0 **** 0.06
9800 H 30.239114352548313 18.599608636021923 77.79924771720323 H 0.0 **** 0.06
9801 C 64.78451597839194 42.374699626857534 39.89651247881348 C 0.0 **** -0.24
9802 H 65.26321170846819 43.29927169837531 40.21928910303903 H 0.0 **** 0.06
9803 H 63.71219205631559 42.43679730195947 40.08045845425371 H 0.0 **** 0.06
9804 H 65.20196294220733 41.535794847961355 40.45377784713949 H 0.0 **** 0.06
9805 H 64.96347925543387 42.22695616851062 38.83002242466133 H 0.0 **** 0.06
9806 C 50.120517169415535 34.980311528611196 109.51073083161263 C 0.0 **** -0.24
9807 H 50.66729174812485 34.0644688490379 109.2866736933068 H 0.0 **** 0.06
9808 H 49.75361345010492 35.420270877807084 108.5831434665444 H 0.0 **** 0.06
9809 H 50.78240877585992 35.686372070557866 110.01106653795671 H 0.0 **** 0.06
9810 H 49.27679297429643 34.74917022306085 110.16156804749912 H 0.0 **** 0.06
9811 C 86.71785299463752 95.43101790274362 62.110580002136146 C 0.0 **** -0.24
9812 H 85.74642729009419 94.9695410287421 61.93445494381251 H 0.0 **** 0.06
9813 H 87.47221080777841 94.93482724611091 61.4986657397605 H 0.0 **** 0.06
9814 H 86.98141648768572 95.33251871763063 63.16333402236381 H 0.0 **** 0.06
9815 H 86.67228375415449 96.4875316806464 61.84485460881149 H 0.0 **** 0.06
9816 C 11.968492527533147 7.385602466011813 90.65294702158042 C 0.0 **** -0.24
9817 H 11.088304901786731 6.875846280666217 91.04339699957944 H 0.0 **** 0.06
9818 H 12.788553623330621 7.290143261350758 91.36379380109237 H 0.0 **** 0.06
9819 H 11.739783273753162 8.440615178632344 90.50014274539986 H 0.0 **** 0.06
9820 H 12.256648802619967 6.935394868555729 89.70236404023997 H 0.0 **** 0.06
9821 C 18.366752373437976 91.52079651727041 105.78691530996099 C 0.0 **** -0.24
9822 H 17.395446065151873 91.97090808490293 105.58328951188977 H 0.0 **** 0.06
9823 H 18.64730926447865 90.87128203980637 104.95803195609341 H 0.0 **** 0.06
9824 H 18.309400796189195 90.93497668448111 106.70462431135681 H 0.0 **** 0.06
9825 H 19.113960107186983 92.30652091398045 105.90311209111209 H 0.0 **** 0.06
9826 C 4.954312187968316 72.10489527165062 2.363304643402956 C 0.0 **** -0.24
9827 H 6.015579661983248 71.86061369615905 2.419213252990568 H 0.0 **** 0.06
9828 H 4.7625311176695355 72.68546035455253 1.460702244809049 H 0.0 **** 0.06
9829 H 4.669747970206284 72.68927103592956 3.2382212268046917 H 0.0 **** 0.06
9830 H 4.370610210903834 71.18545029920747 2.3352734638435972 H 0.0 **** 0.06
9831 C 18.547016754190565 59.97771066964802 36.291341540947826 C 0.0 **** -0.24
9832 H 17.473356963149 59.79815327372667 36.238828302315085 H 0.0 **** 0.06
9833 H 19.02488663675294 59.16970093783156 36.84409957705219 H 0.0 **** 0.06
9834 H 18.731840074308735 60.92499019980821 36.79914047518187 H 0.0 **** 0.06
9835 H 18.957200220555393 60.021091238496865 35.28239183260669 H 0.0 **** 0.06
9836 C 4.067445831033176 10.387070578367059 49.11905744444408 C 0.0 **** -0.24
9837 H 3.712647785866718 11.073260047887374 48.350778740281896 H 0.0 **** 0.06
9838 H 3.234424680583725 10.101717956860341 49.763223274417555 H 0.0 **** 0.06
9839 H 4.836797577482692 10.87526025075448 49.716496605265775 H 0.0 **** 0.06
9840 H 4.48313365318497 9.496607283450857 48.64778299754721 H 0.0 **** 0.06
9841 C 82.46294741606835 57.701211602985154 94.32046940060263 C 0.0 **** -0.24
9842 H 83.02072237958015 58.43982664033038 94.89557612621945 H 0.0 **** 0.06
9843 H 82.10128850038788 56.91909405481877 94.98813761309708 H 0.0 **** 0.06
9844 H 83.1134637106203 57.2627039864372 93.56471056921609 H 0.0 **** 0.06
9845 H 81.61558669121968 58.18480193335387 93.83443950665921 H 0.0 **** 0.06
9846 C 56.29953670974121 83.4682014340894 107.29726534601463 C 0.0 **** -0.24
9847 H 55.72710673767317 83.1065902300515 108.1510897398077 H 0.0 **** 0.06
9848 H 55.635110984984244 83.59899850768056 106.44293609902346 H 0.0 **** 0.06
9849 H 57.0751894494469 82.74368559961113 107.0481277887539 H 0.0 **** 0.06
9850 H 56.76213767056578 84.42319758779558 107.54889130203344 H 0.0 **** 0.06
9851 C 74.80185495299935 31.661017278187103 18.82827959309529 C 0.0 **** -0.24
9852 H 74.63409446074837 31.193636169300277 17.857492167893298 H 0.0 **** 0.06
9853 H 75.82716444433129 32.027483117276205 18.881176772606835 H 0.0 **** 0.06
9854 H 74.63775384998178 30.92716750769901 19.61769217986472 H 0.0 **** 0.06
9855 H 74.11063571761372 32.49342543256546 18.95518283005677 H 0.0 **** 0.06
9856 C 26.240056308908237 18.531184479872707 56.71773834019026 C 0.0 **** -0.24
9857 H 25.244426353452923 18.234047661519412 57.049347503559034 H 0.0 **** 0.06
9858 H 26.885784883718344 18.66806527526387 57.58464264596756 H 0.0 **** 0.06
9859 H 26.17382978155962 19.466621094056336 56.16132096348364 H 0.0 **** 0.06
9860 H 26.654592595460088 17.754795298007195 56.074225791920966 H 0.0 **** 0.06
9861 C 86.14262374198049 88.36304282690128 75.55595436323397 C 0.0 **** -0.24
9862 H 85.95479447068303 88.74020506697866 76.56147397891903 H 0.0 **** 0.06
9863 H 87.15767735705535 88.6219035285917 75.25496241837874 H 0.0 **** 0.06
9864 H 85.43158554251525 88.81204962294044 74.86206858952289 H 0.0 **** 0.06
9865 H 86.02439382843865 87.27934757402522 75.54705677205796 H 0.0 **** 0.06
9866 C 51.44084169771325 104.23836774322143 8.380307759950028 C 0.0 **** -0.24
9867 H 52.081905072137715 105.07430056313754 8.65942585612379 H 0.0 **** 0.06
9868 H 50.72999407490123 104.0419848348732 9.184550510201746 H 0.0 **** 0.06
9869 H 52.05151604917898 103.35217133113761 8.211128686565871 H 0.0 **** 0.06
9870 H 50.89749499685351 104.48640473879215 7.46813403207716 H 0.0 **** 0.06
9871 C 1.7679860843398085 55.17670385884321 20.229078885175 C 0.0 **** -0.24
9872 H 1.9474779215868026 55.14273240715795 19.15382005306813 H 0.0 **** 0.06
9873 H 2.5389076327123776 55.7803135080581 20.7073676968634 H 0.0 **** 0.06
9874 H 1.7956369504182161 54.16419895898258 20.63231100408467 H 0.0 **** 0.06
9875 H 0.7899140399291653 55.61734620050646 20.419345043435385 H 0.0 **** 0.06
9876 C 37.646122144636195 24.70162038124227 7.1659438430163505 C 0.0 **** -0.24
9877 H 38.18116020766416 24.00202201230857 6.523207278104849 H 0.0 **** 0.06
9878 H 36.57890309890044 24.483108688391756 7.13170934858033 H 0.0 **** 0.06
9879 H 37.81990052183713 25.72022213126818 6.819207044464747 H 0.0 **** 0.06
9880 H 38.005741905376084 24.601022109753057 8.190363931385775 H 0.0 **** 0.06
9881 C 14.179411457775743 108.02981692292073 44.19383008219933 C 0.0 **** -0.24
9882 H 14.788690612338684 107.16636573120022 44.46333867045058 H 0.0 **** 0.06
9883 H 13.28200592556118 107.69230287717656 43.67422879345861 H 0.0 **** 0.06
9884 H 14.752549983812969 108.68824504971207 43.541166700872395 H 0.0 **** 0.06
9885 H 13.895887682023911 108.56982288569426 45.09720137384306 H 0.0 **** 0.06
9886 C 66.6823426515242 97.13080363855346 45.5484774609717 C 0.0 **** -0.24
9887 H 67.33573456457071 97.72027258627887 46.1904518785679 H 0.0 **** 0.06
9888 H 65.85284721243154 96.73805161104931 46.13763201626103 H 0.0 **** 0.06
9889 H 67.24639757968993 96.30285404936117 45.11821427069263 H 0.0 **** 0.06
9890 H 66.29392812058896 97.76075084780541 44.74797664973944 H 0.0 **** 0.06
9891 C 35.124140534602645 40.31097039213529 15.614900299056956 C 0.0 **** -0.24
9892 H 36.03494772340434 40.54609618071737 16.166955610445314 H 0.0 **** 0.06
9893 H 35.31489142527886 39.4787081578871 14.937300462346116 H 0.0 **** 0.06
9894 H 34.811927998520446 41.18301142230885 15.041618028143148 H 0.0 **** 0.06
9895 H 34.336255652192165 40.035283917114526 16.31601958587885 H 0.0 **** 0.06
9896 C 60.696277686244684 108.3500558371717 1.7292854735564873 C 0.0 **** -0.24
9897 H 60.82053168407316 108.99149429481865 2.6025692659105886 H 0.0 **** 0.06
9898 H 60.581383341650906 107.31506914432832 2.053485670937259 H 0.0 **** 0.06
9899 H 61.57292546061285 108.435123299591 1.0886779713136514 H 0.0 **** 0.06
9900 H 59.809388782278575 108.65882685663739 1.1760338239820092 H 0.0 **** 0.06
9901 C 101.75427476839539 107.70375659133987 18.279853566475225 C 0.0 **** -0.24
9902 H 102.15341615128531 106.9796833747637 17.569464233726137 H 0.0 **** 0.06
9903 H 100.98508668036938 107.22756932260504 18.88842013319993 H 0.0 **** 0.06
9904 H 101.32063273245709 108.54392511435111 17.738255690703596 H 0.0 **** 0.06
9905 H 102.55773361526623 108.06169506978243 18.923830898189124 H 0.0 **** 0.06
9906 C 1.7726254280163687 77.24456702965792 37.820318610440296 C 0.0 **** -0.24
9907 H 0.9121861010781291 77.05277549274696 38.46220340271152 H 0.0 **** 0.06
9908 H 1.4410915525788583 77.33180704015098 36.7849513311055 H 0.0 **** 0.06
9909 H 2.480409908547741 76.41976254941407 37.907241548805246 H 0.0 **** 0.06
9910 H 2.254852453255709 78.17166383037477 38.12709766050281 H 0.0 **** 0.06
9911 C 105.04044605118855 55.58578466257455 99.48203602002621 C 0.0 **** -0.24
9912 H 105.05581842362777 54.49658900130458 99.50781047682446 H 0.0 **** 0.06
9913 H 104.0241348122637 55.930418265700936 99.28889604166963 H 0.0 **** 0.06
9914 H 105.70135009634366 55.939141056492765 98.69036122553206 H 0.0 **** 0.06
9915 H 105.38045852579484 55.97599174191805 100.44102756719916 H 0.0 **** 0.06
9916 C 10.070003123043815 93.34837067922614 69.73208646211583 C 0.0 **** -0.24
9917 H 10.027269756980713 94.40109201228655 70.01165134322173 H 0.0 **** 0.06
9918 H 10.0039064759184 93.25849188798358 68.64699384525284 H 0.0 **** 0.06
9919 H 9.237365504114837 92.8167192270919 70.19215076992145 H 0.0 **** 0.06
9920 H 11.010090229387313 92.91844684475404 70.0759723888483 H 0.0 **** 0.06
9921 C 6.0593250949230395 56.294582155312824 34.009853011387264 C 0.0 **** -0.24
9922 H 6.857403272101223 56.109742354995824 34.72914318441343 H 0.0 **** 0.06
9923 H 6.4836683265141914 56.71598877197415 33.09734095180869 H 0.0 **** 0.06
9924 H 5.343087898214321 56.9970094501322 34.43559943232762 H 0.0 **** 0.06
9925 H 5.555269352364192 55.35679927637155 33.77738168754939 H 0.0 **** 0.06
9926 C 2.073353805142233 38.97991253145152 75.0686061335276 C 0.0 **** -0.24
9927 H 2.651495505116486 39.8333409462785 75.42340184510141 H 0.0 **** 0.06
9928 H 1.156166258499809 39.33325710042191 74.59746870041027 H 0.0 **** 0.06
9929 H 1.8240747170888199 38.335243077171974 75.91229811895184 H 0.0 **** 0.06
9930 H 2.662337021462747 38.41748587475473 74.34359307983001 H 0.0 **** 0.06
9931 C 33.336126946479965 109.21126318481146 64.2998181627106 C 0.0 **** -0.24
9932 H 33.70052031212943 108.65823586938723 63.43438006432346 H 0.0 **** 0.06
9933 H 32.544068139485475 108.64224967066355 64.78759616323315 H 0.0 **** 0.06
9934 H 32.94442953225902 110.17591708353524 63.97570568100609 H 0.0 **** 0.06
9935 H 34.15548980204599 109.36865011565988 65.00159074227992 H 0.0 **** 0.06
9936 C 17.895838498083037 6.736364725268629 63.61784786674417 C 0.0 **** -0.24
9937 H 17.1054010280682 7.282009751597698 64.13448027018686 H 0.0 **** 0.06
9938 H 18.08088956164582 7.1984397692965985 62.647550140787416 H 0.0 **** 0.06
9939 H 17.588240264968704 5.700845384902834 63.474467760216896 H 0.0 **** 0.06
9940 H 18.807342502902998 6.765838620137444 64.21483329530955 H 0.0 **** 0.06
9941 C 58.32010394765169 59.34920325207304 88.7841527827884 C 0.0 **** -0.24
9942 H 57.366863197985936 59.07337788327749 88.33368160602004 H 0.0 **** 0.06
9943 H 58.18851939764025 60.243435910539404 89.39380624901571 H 0.0 **** 0.06
9944 H 59.04911166026318 59.548469410481914 87.99958121339864 H 0.0 **** 0.06
9945 H 58.67475177942029 58.53190964526621 89.41166047968255 H 0.0 **** 0.06
9946 C 89.35338537320207 62.14773869098184 74.26755748906385 C 0.0 **** -0.24
9947 H 89.74445568956537 62.58557907407379 75.1859711600112 H 0.0 **** 0.06
9948 H 89.53609231213535 62.82631158137417 73.434528165279 H 0.0 **** 0.06
9949 H 88.28133090482733 61.98013080313012 74.37242259449246 H 0.0 **** 0.06
9950 H 89.85290643164923 61.196706403439265 74.07853039196607 H 0.0 **** 0.06
9951 C 90.8349314773054 108.2478834602415 91.06806121682433 C 0.0 **** -0.24
9952 H 91.16218572316964 109.28563874031772 91.00202702183867 H 0.0 **** 0.06
9953 H 91.42631675096371 107.63749698103138 90.38596178056821 H 0.0 **** 0.06
9954 H 89.78191792703909 108.18253338774446 90.79476343176489 H 0.0 **** 0.06
9955 H 90.96850279164795 107.88921721877156 92.08843569316733 H 0.0 **** 0.06
9956 C 100.38704588027669 26.97807688360129 106.20041981207984 C 0.0 **** -0.24
9957 H 100.16060212375379 26.608192254039096 105.19963385762313 H 0.0 **** 0.06
9958 H 99.56280142024416 26.734649131585428 106.87188085489834 H 0.0 **** 0.06
9959 H 100.52210930996301 28.058874721602393 106.1664383782034 H 0.0 **** 0.06
9960 H 101.30140060195771 26.50815231649247 106.56161943786103 H 0.0 **** 0.06
9961 C 36.56197132470939 109.54929581758387 79.38546916933137 C 0.0 **** -0.24
9962 H 35.47722924727972 109.51906651762567 79.2905555076992 H 0.0 **** 0.06
9963 H 36.970905157831055 108.55629729416592 79.19684002742201 H 0.0 **** 0.06
9964 H 36.82954881112977 109.866660759112 80.39404178300327 H 0.0 **** 0.06
9965 H 36.97103834395284 110.25464484546137 78.66186651360096 H 0.0 **** 0.06
9966 C 94.83197912725785 9.321081476497497 96.9459108925929 C 0.0 **** -0.24
9967 H 95.43969903923838 9.608095868468183 97.80398729095805 H 0.0 **** 0.06
9968 H 95.4131222292759 9.448498207348536 96.03204679716197 H 0.0 **** 0.06
9969 H 93.94405592380046 9.95072405281374 96.90331507942238 H 0.0 **** 0.06
9970 H 94.5339549734671 8.277476745628675 97.04482304296448 H 0.0 **** 0.06
9971 C 58.36263306110112 15.525512234634306 58.224674104093424 C 0.0 **** -0.24
9972 H 58.84176233587712 16.49706529176109 58.338746795040436 H 0.0 **** 0.06
9973 H 59.126334621574784 14.749980229556797 58.15808619553036 H 0.0 **** 0.06
9974 H 57.75918098401348 15.52146075875396 57.31700839699914 H 0.0 **** 0.06
9975 H 57.72313944028042 15.33203396289312 59.08678140922257 H 0.0 **** 0.06
9976 C 108.64673403496496 54.55586100518889 46.63017701807272 C 0.0 **** -0.24
9977 H 109.3010139955096 53.79972570819021 47.066173691270166 H 0.0 **** 0.06
9978 H 107.95329590726968 54.078396498118195 45.93652569071665 H 0.0 **** 0.06
9979 H 109.24732289895024 55.291452719425706 46.09485400985295 H 0.0 **** 0.06
9980 H 108.08625489183586 55.05110557917175 47.42247794445173 H 0.0 **** 0.06
9981 C 98.3855805160869 14.075608094042892 106.68120386045103 C 0.0 **** -0.24
9982 H 99.00703438585114 14.504343757861207 107.46773085202801 H 0.0 **** 0.06
9983 H 98.10751765535709 14.855798328457535 105.97178285289212 H 0.0 **** 0.06
9984 H 97.48506374381833 13.648051501669094 107.12370339466295 H 0.0 **** 0.06
9985 H 98.94142964114279 13.294200077810164 106.16368855602548 H 0.0 **** 0.06
9986 C 53.87137949385735 46.64224106938755 38.12717301349585 C 0.0 **** -0.24
9987 H 53.059632136357266 45.925663871938866 38.25392959089868 H 0.0 **** 0.06
9988 H 53.952551408179545 47.26077408765045 39.020737149699016 H 0.0 **** 0.06
9989 H 53.66479524228134 47.27545347130388 37.263933823128696 H 0.0 **** 0.06
9990 H 54.80691767583377 46.10707630353545 37.96825546693441 H 0.0 **** 0.06
9991 C 34.76721457238449 75.47281501770594 106.46826315214746 C 0.0 **** -0.24
9992 H 35.33522244896804 74.73801125519442 107.03942545869721 H 0.0 **** 0.06
9993 H 35.390828175753455 75.87014581963011 105.66661033715148 H 0.0 **** 0.06
9994 H 34.45923670190888 76.28487238074324 107.12723534810048 H 0.0 **** 0.06
9995 H 33.88540851621917 74.99669297747866 106.04128461608514 H 0.0 **** 0.06
9996 C 80.04168785915077 31.35024172312444 35.57743384544899 C 0.0 **** -0.24
9997 H 80.55519036875297 31.609065118717467 36.5035361603248 H 0.0 **** 0.06
9998 H 80.75195691824634 31.364828193458038 34.75076283423282 H 0.0 **** 0.06
9999 H 79.24790076078536 32.07302626043935 35.38823176078367 H 0.0 **** 0.06
10000 H 79.60972159317046 30.353225881583512 35.66783547735768 H 0.0 **** 0.06
10001 C 14.031389375949004 42.12441054319902 109.10144465173389 C 0.0 **** -0.24
10002 H 14.825121761907894 41.40663022302425 108.89205214359919 H 0.0 **** 0.06
10003 H 13.066301430021127 41.67539044217679 108.87039923568727 H 0.0 **** 0.06
10004 H 14.175380014484347 43.01454028981726 108.48789378732968 H 0.0 **** 0.06
10005 H 14.061732571805408 42.40087825463962 110.15573199240251 H 0.0 **** 0.06
10006 C 32.42777718458824 105.91387427693458 13.298790088756249 C 0.0 **** -0.24
10007 H 32.63868830771587 106.96583647914304 13.492805342465616 H 0.0 **** 0.06
10008 H 32.44238941299033 105.73341794238529 12.224193034317494 H 0.0 **** 0.06
10009 H 31.44575673784867 105.66089914686579 13.697597378893619 H 0.0 **** 0.06
10010 H 33.18604641625546 105.29717718747504 13.781788389886145 H 0.0 **** 0.06
10011 C 13.758888030227496 94.55269440460216 82.11177891222115 C 0.0 **** -0.24
10012 H 12.845206708190688 94.53076447854653 81.51715010207765 H 0.0 **** 0.06
10013 H 14.610710468754519 94.75141651109372 81.461579013323 H 0.0 **** 0.06
10014 H 13.89373577458781 93.58991439452653 82.60500159621458 H 0.0 **** 0.06
10015 H 13.683756923702504 95.33909283077034 82.86289255358372 H 0.0 **** 0.06
10016 C 63.43715852365554 103.91554876014703 51.781384957507896 C 0.0 **** -0.24
10017 H 63.664653419516654 104.35560574893363 50.80981723263616 H 0.0 **** 0.06
10018 H 64.12274478865092 104.31325788519177 52.52937878655342 H 0.0 **** 0.06
10019 H 63.547386734420115 102.83309936693446 51.72389696818331 H 0.0 **** 0.06
10020 H 62.41232734657805 104.16246886341553 52.0593353206292 H 0.0 **** 0.06
10021 C 80.96723321795446 70.07469530399965 5.268126009527393 C 0.0 **** -0.24
10022 H 81.10115086548979 70.4436367661744 6.284996760054597 H 0.0 **** 0.06
10023 H 81.78537564539465 70.43337449061906 4.642290447343811 H 0.0 **** 0.06
10024 H 80.01917619535811 70.43755216377795 4.870790311466237 H 0.0 **** 0.06
10025 H 80.96600382499327 68.98466980004667 5.27410573640644 H 0.0 **** 0.06
10026 C 84.39028185702429 39.68700890836658 65.14189712803928 C 0.0 **** -0.24
10027 H 83.90005417315356 38.71301905605327 65.15518249890127 H 0.0 **** 0.06
10028 H 85.40916665691734 39.57484405279689 64.77235737151722 H 0.0 **** 0.06
10029 H 84.41254117431028 40.095922766355244 66.15131367724335 H 0.0 **** 0.06
10030 H 83.83857940340681 40.36146987820311 64.48792571493256 H 0.0 **** 0.06
10031 C 39.974472339048475 78.51446457386407 77.06508620276685 C 0.0 **** -0.24
10032 H 39.63522170631404 77.53736246311229 77.40886568411818 H 0.0 **** 0.06
10033 H 39.87948625226181 79.2370853556418 77.87606138802533 H 0.0 **** 0.06
10034 H 39.36605459507456 78.83408715164688 76.21959695129414 H 0.0 **** 0.06
10035 H 41.01882086439667 78.44906341061653 76.7572570489757 H 0.0 **** 0.06
10036 C 97.72954048442443 39.02607298907726 34.68653898368922 C 0.0 **** -0.24
10037 H 98.14299980308013 39.35816805716869 33.73464188667174 H 0.0 **** 0.06
10038 H 97.92972748166648 39.77762552716964 35.45046360758718 H 0.0 **** 0.06
10039 H 98.19205053231019 38.08237179944518 34.97433291083132 H 0.0 **** 0.06
10040 H 96.65289441569837 38.88770272636532 34.58520882960531 H 0.0 **** 0.06
10041 C 100.4073556845752 71.0374310900786 5.9292499410168205 C 0.0 **** -0.24
10042 H 100.20090290659732 71.12933239039654 6.996142777977568 H 0.0 **** 0.06
10043 H 101.47509148268382 70.87782929325067 5.778546914431956 H 0.0 **** 0.06
10044 H 100.10042413720352 71.95235833948433 5.420937935446446 H 0.0 **** 0.06
10045 H 99.85138780467385 70.19247838650836 5.5231655889225095 H 0.0 **** 0.06
10046 C 53.18229505633701 14.040281237566333 55.894495010282526 C 0.0 **** -0.24
10047 H 52.46079195428348 13.976570513179453 55.080582220120846 H 0.0 **** 0.06
10048 H 53.201965258533164 15.0589237384891 56.282825330156896 H 0.0 **** 0.06
10049 H 54.17169354061036 13.773042017699453 55.524951180834876 H 0.0 **** 0.06
10050 H 52.89372276234167 13.353965047252515 56.69066646534742 H 0.0 **** 0.06
10051 C 56.973554066952026 15.895551533571393 68.34855713453109 C 0.0 **** -0.24
10052 H 56.33518349933588 16.09255349032452 67.48665623237373 H 0.0 **** 0.06
10053 H 56.369248108890034 15.893373597451216 69.25557059482472 H 0.0 **** 0.06
10054 H 57.73474266968262 16.672342504550187 68.42094193474698 H 0.0 **** 0.06
10055 H 57.45621425113744 14.924900305036942 68.2294174570705 H 0.0 **** 0.06
10056 C 8.122956313050906 42.71144339371568 91.70062371096418 C 0.0 **** -0.24
10057 H 9.163566040046248 42.47952389947966 91.47258504083428 H 0.0 **** 0.06
10058 H 8.072112069363072 43.276379446223444 92.63208387913687 H 0.0 **** 0.06
10059 H 7.559734559422225 41.784145736555104 91.8068554792157 H 0.0 **** 0.06
10060 H 7.696572188319976 43.30501733243756 90.89165928449574 H 0.0 **** 0.06
10061 C 82.3158415100666 44.508848903297974 82.5235404791132 C 0.0 **** -0.24
10062 H 82.01732237549578 45.44280886120748 82.99890134203973 H 0.0 **** 0.06
10063 H 82.8074483063165 43.86819605065216 83.25743875087186 H 0.0 **** 0.06
10064 H 83.0049690285752 44.72092934598305 81.70737633620523 H 0.0 **** 0.06
10065 H 81.43372574550716 44.00255464826219 82.13248711573566 H 0.0 **** 0.06
10066 C 6.920885155158146 68.94951017442779 54.031792586586505 C 0.0 **** -0.24
10067 H 7.427598917835638 68.65702782232627 53.11134912279971 H 0.0 **** 0.06
10068 H 7.640320935780409 68.97356015818993 54.84989868455284 H 0.0 **** 0.06
10069 H 6.136409669690067 68.22728244994741 54.25826156889795 H 0.0 **** 0.06
10070 H 6.479572541845414 69.93785393293273 53.90531480338905 H 0.0 **** 0.06
10071 C 102.94684537097002 20.572644573328233 104.167246157023 C 0.0 **** -0.24
10072 H 103.37348721803428 20.21241760577252 105.10368470775948 H 0.0 **** 0.06
10073 H 101.87966625580201 20.75222431589321 104.29977820746448 H 0.0 **** 0.06
10074 H 103.09582409204958 19.824715984726417 103.38847723822894 H 0.0 **** 0.06
10075 H 103.4384213415971 21.501484849769167 103.87843366681939 H 0.0 **** 0.06
10076 C 15.080629394199008 27.269407078026035 39.591079524718296 C 0.0 **** -0.24
10077 H 16.10827054442578 26.957704839633976 39.77261505298294 H 0.0 **** 0.06
10078 H 14.956604877295092 28.30845266562619 39.89854516555661 H 0.0 **** 0.06
10079 H 14.40249522040321 26.637601085499057 40.16589615693358 H 0.0 **** 0.06
10080 H 14.853615819992172 27.17413173127784 38.53001627129347 H 0.0 **** 0.06
10081 C 88.24209331710077 105.50981280617349 50.45163404228298 C 0.0 **** -0.24
10082 H 88.06035817401785 106.47898115769627 49.985835839206175 H 0.0 **** 0.06
10083 H 88.82487495894352 104.88506358607825 49.77561719641569 H 0.0 **** 0.06
10084 H 87.28867424766162 105.02604166579317 50.66433908261236 H 0.0 **** 0.06
10085 H 88.79220819987874 105.65236260452717 51.382039361893305 H 0.0 **** 0.06
10086 C 7.710808692440665 34.49386757964593 80.45203355661442 C 0.0 **** -0.24
10087 H 6.856374630022318 34.986979225844756 80.91555723359993 H 0.0 **** 0.06
10088 H 7.77829431630923 33.466884322728305 80.8132357490908 H 0.0 **** 0.06
10089 H 8.623729754068904 35.031163387499426 80.71083900951183 H 0.0 **** 0.06
10090 H 7.585577886080927 34.49136121329822 79.36928158892114 H 0.0 **** 0.06
10091 C 64.14502509920621 10.266312493970299 99.08794482687651 C 0.0 **** -0.24
10092 H 63.89212201720494 10.466637608174262 100.12898023948235 H 0.0 **** 0.06
10093 H 64.11135825239842 11.196234329828041 98.52053688461689 H 0.0 **** 0.06
10094 H 63.42722571640792 9.558932191307276 98.67047853375539 H 0.0 **** 0.06
10095 H 65.14688746825749 9.842151836434889 99.03198656134985 H 0.0 **** 0.06
10096 C 7.789247562176911 86.88840936947742 50.337324875540006 C 0.0 **** -0.24
10097 H 8.551759419582254 87.61113793087543 50.631737974764306 H 0.0 **** 0.06
10098 H 7.898765623671807 85.98242175764364 50.9329053286037 H 0.0 **** 0.06
10099 H 7.9071901415534285 86.64687287343236 49.28142455521266 H 0.0 **** 0.06
10100 H 6.8008863408982165 87.31584361624323 50.50443230683555 H 0.0 **** 0.06
10101 C 86.33100486443072 67.27475609348349 92.477484456725 C 0.0 **** -0.24
10102 H 87.26301651749606 67.81715066326944 92.31521823925266 H 0.0 **** 0.06
10103 H 86.50340302184168 66.4570186274695 93.17770028475115 H 0.0 **** 0.06
10104 H 85.97560686384779 66.87260802338528 91.52804824429069 H 0.0 **** 0.06
10105 H 85.58331918777617 67.95353079265226 92.88770866074702 H 0.0 **** 0.06
10106 C 89.71034330900801 94.06768593551112 9.805590715926286 C 0.0 **** -0.24
10107 H 90.35467968316968 93.19391159376589 9.900025209257578 H 0.0 **** 0.06
10108 H 90.0740624751142 94.70114840606345 8.995168208009432 H 0.0 **** 0.06
10109 H 89.72165887040947 94.63019049518593 10.739363953948498 H 0.0 **** 0.06
10110 H 88.69194606142514 93.74689710264097 9.587520981892666 H 0.0 **** 0.06
10111 C 9.267205644718173 103.95969389011184 20.947600148503085 C 0.0 **** -0.24
10112 H 10.18581634967631 104.14582841164253 21.504471947489435 H 0.0 **** 0.06
10113 H 8.657840271315969 103.23396136730605 21.486653981313623 H 0.0 **** 0.06
10114 H 9.514536913643497 103.5654504686452 19.96136879209118 H 0.0 **** 0.06
10115 H 8.712875127416213 104.89163139225931 20.838480888457042 H 0.0 **** 0.06
10116 C 98.59501082124096 84.69902388508359 34.26274864356964 C 0.0 **** -0.24
10117 H 98.97853526855707 84.5529629630185 33.25419128509452 H 0.0 **** 0.06
10118 H 98.4892895044567 83.73260794503679 34.755558030804536 H 0.0 **** 0.06
10119 H 97.62342104331272 85.1905355783066 34.215047391327005 H 0.0 **** 0.06
10120 H 99.2894642377249 85.3215146960764 34.828693519486706 H 0.0 **** 0.06
10121 C 76.03166558960595 35.76239186816258 90.36601639871314 C 0.0 **** -0.24
10122 H 75.39072245251543 36.400782628874715 89.75763328444097 H 0.0 **** 0.06
10123 H 75.42099639962214 35.01487798404488 90.87466275066753 H 0.0 **** 0.06
10124 H 76.5530904821336 36.37115567670198 91.10524478797231 H 0.0 **** 0.06
10125 H 76.7595096830442 35.26315706148366 89.72711155316915 H 0.0 **** 0.06
10126 C 85.43084792393554 72.7289865291821 52.6372258077983 C 0.0 **** -0.24
10127 H 85.70775217637556 73.54503776583286 53.3031298365257 H 0.0 **** 0.06
10128 H 86.22432944928018 71.98124503685305 52.630696938644576 H 0.0 **** 0.06
10129 H 85.28773114127137 73.11516025447479 51.6283168553241 H 0.0 **** 0.06
10130 H 84.50508855782368 72.27259261102282 52.986492198582965 H 0.0 **** 0.06
10131 C 13.660878111546651 58.21725670147137 107.46947885705637 C 0.0 **** -0.24
10132 H 13.488839568756703 58.848359338285974 106.59674743414054 H 0.0 **** 0.06
10133 H 14.631314367042478 58.45695582215424 107.90364777486744 H 0.0 **** 0.06
10134 H 13.644023544404718 57.17019431033228 107.16867312792326 H 0.0 **** 0.06
10135 H 12.878184703766863 58.396030812743845 108.20578765191338 H 0.0 **** 0.06
10136 C 103.87497584731517 26.080882413262543 10.888655169811614 C 0.0 **** -0.24
10137 H 104.762607407379 25.44701009251304 10.87378751373916 H 0.0 **** 0.06
10138 H 103.50277616254078 26.206521755063108 9.872023967454709 H 0.0 **** 0.06
10139 H 104.1319727890882 27.05467969832202 11.305334033323788 H 0.0 **** 0.06
10140 H 103.10641223465618 25.613921284278888 11.503143618249112 H 0.0 **** 0.06
10141 C 103.41090515497697 21.017926822912244 108.66216998764725 C 0.0 **** -0.24
10142 H 103.2343990955097 20.1317622397969 108.05251614586882 H 0.0 **** 0.06
10143 H 104.4832878082297 21.165335273279283 108.78688573136952 H 0.0 **** 0.06
10144 H 102.94561250176952 20.883888831964285 109.63905097310834 H 0.0 **** 0.06
10145 H 102.97857635445912 21.889409114245254 108.17071166950836 H 0.0 **** 0.06
10146 C 37.242092821490246 97.19058732629873 61.39343427947449 C 0.0 **** -0.24
10147 H 36.63172826678948 97.32044168537037 62.287962586863216 H 0.0 **** 0.06
10148 H 37.92538384198849 98.03354982789953 61.29515194413244 H 0.0 **** 0.06
10149 H 36.59519864075324 97.14069896426987 60.517414332818504 H 0.0 **** 0.06
10150 H 37.81419529709592 96.26598384944712 61.47579977377927 H 0.0 **** 0.06
10151 C 2.98747673523161 95.100511398599 39.50958379984924 C 0.0 **** -0.24
10152 H 2.2990899819620836 95.4797671272251 38.753612445810845 H 0.0 **** 0.06
10153 H 2.7412723746728602 94.06338357577715 39.73685928358952 H 0.0 **** 0.06
10154 H 2.899970245539066 95.70232705352936 40.414461925287156 H 0.0 **** 0.06
10155 H 4.008659345379385 95.15806397108486 39.13169137811208 H 0.0 **** 0.06
10156 C 71.85122598786995 51.94550708526987 87.85286391694281 C 0.0 **** -0.24
10157 H 71.40480449203841 52.85550413464992 87.45274137207807 H 0.0 **** 0.06
10158 H 71.20043436362505 51.527931723850514 88.62074536277458 H 0.0 **** 0.06
10159 H 72.82314083957306 52.17897801736058 88.28793255930528 H 0.0 **** 0.06
10160 H 71.97873181593101 51.22005244569638 87.04906934176002 H 0.0 **** 0.06
10161 C 89.89935846680262 82.42215209938466 38.297487339231395 C 0.0 **** -0.24
10162 H 89.54107178466472 82.16351564431835 39.2933440788608 H 0.0 **** 0.06
10163 H 89.23495195799711 83.16504773238468 37.853872604345185 H 0.0 **** 0.06
10164 H 89.91420293622109 81.52932589082958 37.672425050845675 H 0.0 **** 0.06
10165 H 90.90665900486682 82.8327220795055 38.368387184234706 H 0.0 **** 0.06
10166 C 89.50243509808655 105.250560448096 93.04717257918514 C 0.0 **** -0.24
10167 H 88.92995642128 106.10365508577631 93.41306413461234 H 0.0 **** 0.06
10168 H 89.18393632804307 104.34897609462656 93.569511551882 H 0.0 **** 0.06
10169 H 90.56337582213712 105.42086133070468 93.22877166142825 H 0.0 **** 0.06
10170 H 89.33145865391896 105.13072722284139 91.97759093574098 H 0.0 **** 0.06
10171 C 59.67183529620611 72.51711742428584 1.0343850644175347 C 0.0 **** -0.24
10172 H 60.509588559471226 73.11300863734868 0.6715641473275866 H 0.0 **** 0.06
10173 H 60.04881084470698 71.68306764360707 1.625961131512696 H 0.0 **** 0.06
10174 H 59.1047398127426 72.13391507427079 0.18549957051990873 H 0.0 **** 0.06
10175 H 59.02432629631376 73.13872826998548 1.652296776718444 H 0.0 **** 0.06
10176 C 28.349718465305926 95.37990169423267 107.31790803759597 C 0.0 **** -0.24
10177 H 27.367049534123154 95.11671228022092 107.71084699862342 H 0.0 **** 0.06
10178 H 29.029299036467023 94.53711798158332 107.44450869429045 H 0.0 **** 0.06
10179 H 28.736372518411713 96.24408529969367 107.85749136851717 H 0.0 **** 0.06
10180 H 28.263042243762712 95.62217156887999 106.25773894446922 H 0.0 **** 0.06
10181 C 62.962750007821995 20.138857842240586 85.02080335180102 C 0.0 **** -0.24
10182 H 63.78573895731097 20.23836155737279 85.72886838135886 H 0.0 **** 0.06
10183 H 62.39665152915339 21.06957660294866 84.98830800875612 H 0.0 **** 0.06
10184 H 62.308622391213234 19.325612405805117 85.33788042159873 H 0.0 **** 0.06
10185 H 63.36096735745787 19.919192774357285 84.0301096182439 H 0.0 **** 0.06
10186 C 12.67545416089061 18.936502061319004 22.11140233183695 C 0.0 **** -0.24
10187 H 13.604953871667135 19.505358047187713 22.10940433340715 H 0.0 **** 0.06
10188 H 12.243750490406029 18.942629501555956 21.11080239475403 H 0.0 **** 0.06
10189 H 11.973647843895321 19.389178557093715 22.81340293972281 H 0.0 **** 0.06
10190 H 12.879265063435014 17.90921484523838 22.413349266600974 H 0.0 **** 0.06
10191 C 49.5242291478819 2.865412763586477 99.31355414516543 C 0.0 **** -0.24
10192 H 48.880831012927246 3.454788623301667 99.96753797119226 H 0.0 **** 0.06
10193 H 50.07908959154088 2.1398503882106183 99.9086415400476 H 0.0 **** 0.06
10194 H 50.22331512057946 3.5253923893332626 98.80081199267988 H 0.0 **** 0.06
10195 H 48.91343459772901 2.341434564165027 98.57860536393423 H 0.0 **** 0.06
10196 C 32.3056824688109 85.35089546433653 37.4215802061197 C 0.0 **** -0.24
10197 H 32.1730510468077 85.3748250205594 36.33935231472759 H 0.0 **** 0.06
10198 H 33.311085323468234 84.99844256990173 37.65562935974981 H 0.0 **** 0.06
10199 H 31.57187380345286 84.6769074597218 37.86239629436602 H 0.0 **** 0.06
10200 H 32.16883421958302 86.3539237068548 37.826440422207895 H 0.0 **** 0.06
10201 C 96.0994634527572 15.389362051526348 87.65204753638106 C 0.0 **** -0.24
10202 H 96.5307373449408 15.921510016762483 88.4991373597374 H 0.0 **** 0.06
10203 H 96.05120944310825 14.324198418962169 87.87868790776375 H 0.0 **** 0.06
10204 H 96.72114033323074 15.545710565835662 86.7695635755744 H 0.0 **** 0.06
10205 H 95.09465622215058 15.766629319100787 87.45952546604754 H 0.0 **** 0.06
10206 C 66.51860391571063 74.3434702369446 48.660978845529826 C 0.0 **** -0.24
10207 H 67.00742923417454 74.48356789461789 49.62525802346664 H 0.0 **** 0.06
10208 H 66.95421853053813 73.481487599707 48.154735079082855 H 0.0 **** 0.06
10209 H 66.65928236156014 75.23402417439485 48.049420130303815 H 0.0 **** 0.06
10210 H 65.45267367020904 74.17377678293356 48.816316406258636 H 0.0 **** 0.06
10211 C 41.1796128018709 57.069408010699135 64.96986775191323 C 0.0 **** -0.24
10212 H 41.691287901088856 56.836693588101895 64.03631731244269 H 0.0 **** 0.06
10213 H 41.89111439598511 57.02650454215154 65.79434008242686 H 0.0 **** 0.06
10214 H 40.38407137996131 56.342215824702635 65.13795500727252 H 0.0 **** 0.06
10215 H 40.75084861249269 58.069298776327514 64.91040731845771 H 0.0 **** 0.06
10216 C 49.105745263219035 97.84192920293178 10.88315744294439 C 0.0 **** -0.24
10217 H 48.67112430370912 97.914518191931 11.880329115246756 H 0.0 **** 0.06
10218 H 48.53927056388284 98.4678665235308 10.193464205213422 H 0.0 **** 0.06
10219 H 49.06885401375433 96.80521415504079 10.546496074855243 H 0.0 **** 0.06
10220 H 50.14185990428757 98.17777630324426 10.912448971411589 H 0.0 **** 0.06
10221 C 53.81248840945784 32.12986024637263 18.777032822230055 C 0.0 **** -0.24
10222 H 53.03763023467955 32.789070925552494 18.3853493192477 H 0.0 **** 0.06
10223 H 54.7086932574834 32.21813044876376 18.16203269259805 H 0.0 **** 0.06
10224 H 53.457146204664255 31.100079329451034 18.75546900174395 H 0.0 **** 0.06
10225 H 54.04581056390057 32.41358772366044 19.80293307078798 H 0.0 **** 0.06
10226 C 102.31959540039945 34.201275001168824 36.6127294288859 C 0.0 **** -0.24
10227 H 103.10305448729322 33.442655728855044 36.62153771498478 H 0.0 **** 0.06
10228 H 101.57285625721931 33.9591350290446 37.36962625201954 H 0.0 **** 0.06
10229 H 101.8482596460908 34.22344517382177 35.63074984888681 H 0.0 **** 0.06
10230 H 102.75510169226938 35.176252300141414 36.82940742647844 H 0.0 **** 0.06
10231 C 38.41046390266573 92.87651662939734 40.952244621287946 C 0.0 **** -0.24
10232 H 37.5508402757176 92.72559349762679 40.29995461864948 H 0.0 **** 0.06
10233 H 38.48652536453355 92.04407752902893 41.65211081124286 H 0.0 **** 0.06
10234 H 38.287363041267625 93.80742495666208 41.507430914618595 H 0.0 **** 0.06
10235 H 39.31878654921314 92.93024571776749 40.35163156246978 H 0.0 **** 0.06
10236 C 47.07282878822434 36.82924661545911 29.11096135754513 C 0.0 **** -0.24
10237 H 48.15714232314854 36.85588384328992 29.002335916425267 H 0.0 **** 0.06
10238 H 46.67834807702547 37.84474053270712 29.057435518967097 H 0.0 **** 0.06
10239 H 46.81532685337493 36.39035742332405 30.075072300679643 H 0.0 **** 0.06
10240 H 46.641171950387644 36.22915477893716 28.310905142393906 H 0.0 **** 0.06
10241 C 55.87656004064871 16.153088512610623 88.89364436147144 C 0.0 **** -0.24
10242 H 55.037663147143576 15.765121979815916 88.31656308944986 H 0.0 **** 0.06
10243 H 55.998642765550926 17.216346394203853 88.68837058841007 H 0.0 **** 0.06
10244 H 56.78632617123665 15.622340476006329 88.6130254504547 H 0.0 **** 0.06
10245 H 55.685128212666825 16.006912551971794 89.95677291188167 H 0.0 **** 0.06
10246 C 11.388603759697304 103.11544297193994 83.72080939375773 C 0.0 **** -0.24
10247 H 10.512415644987072 103.19197243284997 84.36387272077992 H 0.0 **** 0.06
10248 H 11.362462007951763 103.9107732265882 82.97557970911002 H 0.0 **** 0.06
10249 H 11.38831885593919 102.1466129078165 83.22056132776692 H 0.0 **** 0.06
10250 H 12.29109520125246 103.21093051099547 84.32456032932225 H 0.0 **** 0.06
10251 C 18.671101217177863 41.03857331869614 108.47230681530696 C 0.0 **** -0.24
10252 H 18.501787510459053 42.075167547460694 108.17818062413617 H 0.0 **** 0.06
10253 H 18.82117203336702 40.987447968097 109.55192616550443 H 0.0 **** 0.06
10254 H 19.556614365212482 40.656744583334785 107.96378919970968 H 0.0 **** 0.06
10255 H 17.80563981323067 40.43688948440288 108.19605159171292 H 0.0 **** 0.06
10256 C 97.4557304433672 62.281383607051666 76.1169760929813 C 0.0 **** -0.24
10257 H 96.69041882122457 62.66889625470918 76.79006819128347 H 0.0 **** 0.06
10258 H 97.0248410687924 62.13094475505784 75.12708146914534 H 0.0 **** 0.06
10259 H 97.82945036985416 61.333054020529275 76.50044861266721 H 0.0 **** 0.06
10260 H 98.27569169618909 62.99609036406041 76.0516260775361 H 0.0 **** 0.06
10261 C 31.197729676348104 64.24189380058002 94.02422193034329 C 0.0 **** -0.24
10262 H 30.276697128337503 64.60007645307547 93.56521860189264 H 0.0 **** 0.06
10263 H 31.432870306254102 63.24847854488314 93.64034311109276 H 0.0 **** 0.06
10264 H 31.068387876767332 64.19207398647177 95.10537527210494 H 0.0 **** 0.06
10265 H 32.01230133922854 64.92537231845705 93.78699223625728 H 0.0 **** 0.06
10266 C 93.68758231408303 17.148112628619714 59.95015133616374 C 0.0 **** -0.24
10267 H 93.46383292060189 16.127792724791902 59.63983322199391 H 0.0 **** 0.06
10268 H 94.31755416134517 17.127491057580386 60.83953994395827 H 0.0 **** 0.06
10269 H 92.75684653478389 17.670378815305128 60.17480634277018 H 0.0 **** 0.06
10270 H 94.20892825448917 17.666356783870867 59.14554133553105 H 0.0 **** 0.06
10271 C 44.70391293788916 88.71503540081073 64.29015639972306 C 0.0 **** -0.24
10272 H 44.56997797085074 88.07501773023847 63.41748422782854 H 0.0 **** 0.06
10273 H 45.58829324365553 88.39516727699208 64.84284782458565 H 0.0 **** 0.06
10274 H 43.82680236748388 88.64129950367519 64.93284754925656 H 0.0 **** 0.06
10275 H 44.83245196964154 89.7476702510628 63.96672817739062 H 0.0 **** 0.06
10276 C 40.09238937169815 55.278436810295325 59.612449407586254 C 0.0 **** -0.24
10277 H 39.375636100546956 54.620192046623906 59.122491866511396 H 0.0 **** 0.06
10278 H 41.00954556156546 54.728401788311956 59.81857259185156 H 0.0 **** 0.06
10279 H 39.66875131952668 55.64324291095758 60.548393420265995 H 0.0 **** 0.06
10280 H 40.31288832330003 56.12444763078238 58.9600623602999 H 0.0 **** 0.06
10281 C 43.145462825513164 43.08141621429971 32.428351807605466 C 0.0 **** -0.24
10282 H 43.16303992431196 41.99218181379689 32.39597412777911 H 0.0 **** 0.06
10283 H 44.09409537148889 43.47115692289813 32.058029815823915 H 0.0 **** 0.06
10284 H 42.99218820383203 43.41306589608985 33.45459309042985 H 0.0 **** 0.06
10285 H 42.33243729016971 43.44983134254679 31.8020414371031 H 0.0 **** 0.06
10286 C 87.46728925196493 20.32646751041159 70.69465187156518 C 0.0 **** -0.24
10287 H 87.35163892502854 20.22021165465526 71.77310425327599 H 0.0 **** 0.06
10288 H 87.94239701422362 19.43218353034507 70.29078968712236 H 0.0 **** 0.06
10289 H 88.08664243974414 21.196567386129516 70.47996924087153 H 0.0 **** 0.06
10290 H 86.48694154283515 20.455720740994224 70.2362374013909 H 0.0 **** 0.06
10291 C 9.658062728909911 51.18942666076185 26.74709022457111 C 0.0 **** -0.24
10292 H 9.771227669350395 51.7050359803622 27.701042853363788 H 0.0 **** 0.06
10293 H 8.606501641355067 51.18892056697379 26.458078207328356 H 0.0 **** 0.06
10294 H 10.00926337768746 50.162841861306845 26.845789568756345 H 0.0 **** 0.06
10295 H 10.244456366704469 51.70236369182345 25.98494656797223 H 0.0 **** 0.06
10296 C 91.37141608717805 58.88590078478267 23.64449762719667 C 0.0 **** -0.24
10297 H 91.35192935560876 57.80012026088152 23.738995197548007 H 0.0 **** 0.06
10298 H 90.39754684430304 59.237811454854636 23.302273278717564 H 0.0 **** 0.06
10299 H 92.13653198078202 59.17301834965134 22.922560592077474 H 0.0 **** 0.06
10300 H 91.59954865551153 59.33121373043247 24.612776908002672 H 0.0 **** 0.06
10301 C 68.62949817937641 71.30527428850698 87.15996453757842 C 0.0 **** -0.24
10302 H 68.41450249208884 70.23872949982861 87.09887525598367 H 0.0 **** 0.06
10303 H 68.90740583112853 71.67658808807302 86.17258752869094 H 0.0 **** 0.06
10304 H 69.45152927458196 71.47086967463336 87.85605353321216 H 0.0 **** 0.06
10305 H 67.74333514069184 71.8341469930985 87.51035942618114 H 0.0 **** 0.06
10306 C 104.79206228336662 7.501175408928418 106.36537363509599 C 0.0 **** -0.24
10307 H 104.49268332437734 6.6209157542745345 106.93450723739726 H 0.0 **** 0.06
10308 H 104.19462312864883 8.356727007288939 106.67909125263886 H 0.0 **** 0.06
10309 H 104.63496170513024 7.317830002355052 105.30293978681283 H 0.0 **** 0.06
10310 H 105.84668141388485 7.708640910282682 106.54642726173388 H 0.0 **** 0.06
10311 C 73.94562604952523 6.17588557304623 73.51084297947449 C 0.0 **** -0.24
10312 H 73.69511807398709 5.615605844294521 74.4113207496617 H 0.0 **** 0.06
10313 H 75.0224407702824 6.3409903172197915 73.47332833409101 H 0.0 **** 0.06
10314 H 73.43102113216321 7.136755195918909 73.52669296241301 H 0.0 **** 0.06
10315 H 73.63264677599074 5.610547789531381 72.63252067342468 H 0.0 **** 0.06
10316 C 98.88275481974546 3.0648683774114858 58.224108479832374 C 0.0 **** -0.24
10317 H 99.76110319910111 2.471269365669329 57.97049419650261 H 0.0 **** 0.06
10318 H 98.70089745713989 3.79813982384492 57.437667251487035 H 0.0 **** 0.06
10319 H 99.05323081348473 3.5802430739070275 59.16955215484616 H 0.0 **** 0.06
10320 H 98.01679493144337 2.4099304626253826 58.31773346505022 H 0.0 **** 0.06
10321 C 99.0575586021475 96.98554982976725 21.094540205098355 C 0.0 **** -0.24
10322 H 98.20351722584061 96.83119009807662 20.43469833842937 H 0.0 **** 0.06
10323 H 98.98731400683486 97.97174785281152 21.554329352803734 H 0.0 **** 0.06
10324 H 99.97940485894489 96.91803774012115 20.517200236821083 H 0.0 **** 0.06
10325 H 99.05780761137378 96.22143133211686 21.871535506190938 H 0.0 **** 0.06
10326 C 106.81469008861521 92.42324512710212 105.59037525868783 C 0.0 **** -0.24
10327 H 106.95418008619463 93.16828848565754 104.8059570763387 H 0.0 **** 0.06
10328 H 105.75049253832945 92.30714090798304 105.79576574418172 H 0.0 **** 0.06
10329 H 107.32741994637306 92.74916002597433 106.49620720301112 H 0.0 **** 0.06
10330 H 107.22834114399917 91.46979075423928 105.2624569650938 H 0.0 **** 0.06
10331 C 6.266482572817651 73.63412067992736 78.9888966396664 C 0.0 **** -0.24
10332 H 6.771022904610817 72.81251446778481 78.47963620454362 H 0.0 **** 0.06
10333 H 7.008586020792336 74.35063865710164 79.34354634413347 H 0.0 **** 0.06
10334 H 5.702872213406636 73.24384028520238 79.8356347231578 H 0.0 **** 0.06
10335 H 5.586150314802836 74.12852922003066 78.29510120559968 H 0.0 **** 0.06
10336 C 88.25630463437196 44.055992677592485 98.67973216261272 C 0.0 **** -0.24
10337 H 87.73409597340397 43.98702419938655 99.63373494083703 H 0.0 **** 0.06
10338 H 88.39068492421065 45.10461289016365 98.41312668170711 H 0.0 **** 0.06
10339 H 87.6700800383303 43.55687367172089 97.90846646203585 H 0.0 **** 0.06
10340 H 89.23026196579507 43.573791974173616 98.76314355154669 H 0.0 **** 0.06
10341 C 13.423727481638494 41.524841614629224 74.71647175861818 C 0.0 **** -0.24
10342 H 12.377746404582012 41.394135135222086 74.99471497895553 H 0.0 **** 0.06
10343 H 13.866592902739484 40.5513565139932 74.50316001366065 H 0.0 **** 0.06
10344 H 13.961802215888653 41.99666642925132 75.53790753116112 H 0.0 **** 0.06
10345 H 13.487082918373417 42.155460786393405 73.82977992772476 H 0.0 **** 0.06
10346 C 19.959521496616276 97.50683458830562 97.3175503436478 C 0.0 **** -0.24
10347 H 20.642476744379735 98.31721872930859 97.06355523510788 H 0.0 **** 0.06
10348 H 20.514409192995004 96.57091512583162 97.37893636234247 H 0.0 **** 0.06
10349 H 19.190674262150992 97.42459555445893 96.54921738147497 H 0.0 **** 0.06
10350 H 19.490999190649006 97.71629013686469 98.2798887215399 H 0.0 **** 0.06
10351 C 108.40330661182531 74.76703755951361 9.717865774305915 C 0.0 **** -0.24
10352 H 109.26412773847196 74.64982864161678 9.059197462322151 H 0.0 **** 0.06
10353 H 108.6420262204299 74.36385080885039 10.702066089569724 H 0.0 **** 0.06
10354 H 107.55199689864892 74.22867595631692 9.301007967432046 H 0.0 **** 0.06
10355 H 108.1561550993026 75.82416109005692 9.80771989653053 H 0.0 **** 0.06
10356 C 48.47022090132182 97.19436601520914 2.6039305258208714 C 0.0 **** -0.24
10357 H 47.72616770383947 97.98084454192764 2.4746545884750475 H 0.0 **** 0.06
10358 H 49.408080519549046 97.50076126862399 2.139424116688602 H 0.0 **** 0.06
10359 H 48.113552518494004 96.2774553789124 2.133249656001908 H 0.0 **** 0.06
10360 H 48.631020612436394 97.01843462571054 3.667529820629767 H 0.0 **** 0.06
10361 C 30.88333644472786 18.00935192883951 105.60023720432021 C 0.0 **** -0.24
10362 H 31.823851807422045 18.184703803439856 105.07789685681196 H 0.0 **** 0.06
10363 H 30.505851573881955 18.95184089483645 105.99727826064942 H 0.0 **** 0.06
10364 H 31.04783783679673 17.308730743063855 106.41908158877162 H 0.0 **** 0.06
10365 H 30.154935549294237 17.590441233431726 104.90551506030431 H 0.0 **** 0.06
10366 C 104.8963986419821 66.55340144210948 62.15736346980674 C 0.0 **** -0.24
10367 H 104.25973515222245 66.89857576140753 61.342584870620726 H 0.0 **** 0.06
10368 H 105.9423263838168 66.6299650308286 61.857209960634364 H 0.0 **** 0.06
10369 H 104.65917962589481 65.51521194204992 62.38727977563306 H 0.0 **** 0.06
10370 H 104.7243537449026 67.17001699950947 63.0393836820523 H 0.0 **** 0.06
10371 C 36.547454821139866 27.92986052134458 44.35802424950594 C 0.0 **** -0.24
10372 H 37.58859201165495 27.8219821392438 44.663822416262455 H 0.0 **** 0.06
10373 H 35.91037476591461 27.3553791389362 45.031749781327136 H 0.0 **** 0.06
10374 H 36.42819613369494 27.56069062002024 43.34025034187234 H 0.0 **** 0.06
10375 H 36.26458434756822 28.981904748763014 44.399882641465304 H 0.0 **** 0.06
10376 C 8.828771128676394 81.33994539866518 70.12511134309966 C 0.0 **** -0.24
10377 H 8.896570997724183 80.71846312851598 69.23155950525478 H 0.0 **** 0.06
10378 H 9.134863577982046 80.75877768904525 70.9954862126902 H 0.0 **** 0.06
10379 H 7.799832452714057 81.67689889239591 70.2548050421772 H 0.0 **** 0.06
10380 H 9.483278726907358 82.20484879991182 70.01593356901907 H 0.0 **** 0.06
10381 C 69.91445083650237 87.56469379352467 41.49984309323841 C 0.0 **** -0.24
10382 H 69.82481178841698 88.64715558254481 41.39928829590333 H 0.0 **** 0.06
10383 H 69.06402991301974 87.08413441369565 41.01492675213577 H 0.0 **** 0.06
10384 H 69.92836859390965 87.29774625587731 42.55647650313044 H 0.0 **** 0.06
10385 H 70.83796166851442 87.23170326217392 41.028214194946635 H 0.0 **** 0.06
10386 C 32.693566505454754 1.7296909327256058 53.23616701377665 C 0.0 **** -0.24
10387 H 32.111437694712095 0.8084698493092004 53.20996335421725 H 0.0 **** 0.06
10388 H 33.55768618014595 1.6322756530924458 52.57735336809094 H 0.0 **** 0.06
10389 H 33.03239035011026 1.9166666102346754 54.25532126030231 H 0.0 **** 0.06
10390 H 32.072171583755974 2.560556271193957 52.901014752402546 H 0.0 **** 0.06
10391 C 65.62466687155097 80.75306277017546 83.14758381908814 C 0.0 **** -0.24
10392 H 65.0504461989408 80.3206066615025 83.96731379072202 H 0.0 **** 0.06
10393 H 66.46882463512354 80.10372806980658 82.91398798173572 H 0.0 **** 0.06
10394 H 65.99196690229675 81.736639762452 83.44154960457115 H 0.0 **** 0.06
10395 H 64.98649704946497 80.85109019600034 82.26950765231112 H 0.0 **** 0.06
10396 C 38.830819490565254 59.584658770028796 20.895600942904025 C 0.0 **** -0.24
10397 H 38.62648148831073 60.54459451218656 21.36920540532111 H 0.0 **** 0.06
10398 H 38.894451018179254 58.80940665712018 21.659867327249685 H 0.0 **** 0.06
10399 H 39.77513363813129 59.64031925522926 20.354497865373673 H 0.0 **** 0.06
10400 H 38.02718372193152 59.34475992951138 20.199728154846298 H 0.0 **** 0.06
10401 C 67.65405753825075 23.423107289114427 10.661809925878913 C 0.0 **** -0.24
10402 H 67.30648855066198 24.455318855226807 10.618038372738965 H 0.0 **** 0.06
10403 H 66.99346846303746 22.792466226730568 10.06612307155109 H 0.0 **** 0.06
10404 H 67.64645133858596 23.081350280150275 11.697110937989578 H 0.0 **** 0.06
10405 H 68.66747692977566 23.36456146864731 10.266913354276255 H 0.0 **** 0.06
10406 C 70.1462459941506 35.6162634561087 62.32984190203871 C 0.0 **** -0.24
10407 H 70.50589177108259 34.90698093951556 63.07660236429825 H 0.0 **** 0.06
10408 H 69.42754572949968 36.29377210750607 62.79043803761323 H 0.0 **** 0.06
10409 H 69.66569777210293 35.07361313269291 61.51600415558471 H 0.0 **** 0.06
10410 H 70.98726051275713 36.188395101199944 61.9389214604908 H 0.0 **** 0.06
10411 C 19.01725763214091 18.59548803198865 103.50211279615807 C 0.0 **** -0.24
10412 H 17.92888992843882 18.6493524539882 103.49475079547146 H 0.0 **** 0.06
10413 H 19.333872414500092 17.69529449224433 104.03063207136655 H 0.0 **** 0.06
10414 H 19.421075539858236 19.47328996179931 104.0068045272959 H 0.0 **** 0.06
10415 H 19.386516389363635 18.56362368985748 102.47657120908764 H 0.0 **** 0.06
10416 C 106.70049724310526 27.592748746860593 72.24269400857133 C 0.0 **** -0.24
10417 H 106.3263123314024 27.753122942714242 73.25406914066912 H 0.0 **** 0.06
10418 H 105.97376587575677 27.012293977657606 71.67503072406112 H 0.0 **** 0.06
10419 H 107.64480407654959 27.050289250968433 72.2866275187294 H 0.0 **** 0.06
10420 H 106.85633244398713 28.556449652100383 71.75679600672032 H 0.0 **** 0.06
10421 C 12.369376239865971 76.15489687759701 92.60794370938777 C 0.0 **** -0.24
10422 H 11.35116057451178 76.40610886161086 92.90546391951443 H 0.0 **** 0.06
10423 H 12.342341572050131 75.50185933032624 91.73526049954637 H 0.0 **** 0.06
10424 H 12.871520842465486 75.64359875538821 93.42938750152734 H 0.0 **** 0.06
10425 H 12.911093866260856 77.06816998316542 92.36188861482094 H 0.0 **** 0.06
10426 C 50.11802118030256 6.209495331533184 84.8126666520943 C 0.0 **** -0.24
10427 H 49.21635000984702 6.32889240882737 85.41318833467324 H 0.0 **** 0.06
10428 H 50.560845560269364 5.234319218610855 85.01176941783753 H 0.0 **** 0.06
10429 H 50.83085522278548 6.992932923675006 85.06978340793714 H 0.0 **** 0.06
10430 H 49.86252321174088 6.283726008675698 83.75553966441095 H 0.0 **** 0.06
10431 C 107.57551370021318 34.55387404299649 24.905823087570468 C 0.0 **** -0.24
10432 H 107.45881185897315 33.9244117796703 24.023996703983528 H 0.0 **** 0.06
10433 H 106.63538667615427 34.585248376473686 25.457334408425055 H 0.0 **** 0.06
10434 H 107.85095892400201 35.56227792444101 24.598391205181144 H 0.0 **** 0.06
10435 H 108.35793341091903 34.143215068440306 25.544915039944954 H 0.0 **** 0.06
10436 C 35.67720037727045 10.340957519627864 51.5040430777124 C 0.0 **** -0.24
10437 H 36.423873022460754 10.61340304425724 50.75773061540171 H 0.0 **** 0.06
10438 H 35.64358133250411 11.106451041831406 52.27955665715453 H 0.0 **** 0.06
10439 H 35.94305371182196 9.38231772862153 51.94922237481732 H 0.0 **** 0.06
10440 H 34.6995870321592 10.262195454817629 51.02791959181736 H 0.0 **** 0.06
10441 C 35.26340396525251 10.165853633364197 83.26818481582495 C 0.0 **** -0.24
10442 H 34.936204592931745 10.177708258619262 82.22898230700002 H 0.0 **** 0.06
10443 H 34.46929366170278 10.558427296954237 83.90361901979088 H 0.0 **** 0.06
10444 H 36.15379368584982 10.785020297153599 83.37586319834955 H 0.0 **** 0.06
10445 H 35.49472303073375 9.143011914878498 83.5647976137709 H 0.0 **** 0.06
10446 C 66.53453129733006 102.59239848866497 1.7792978964828592 C 0.0 **** -0.24
10447 H 67.35435086005077 102.88471660683928 2.435146846586747 H 0.0 **** 0.06
10448 H 65.91284113745138 101.85223128365055 2.2826126049161815 H 0.0 **** 0.06
10449 H 66.93741245939077 102.16620298876705 0.8612254785564772 H 0.0 **** 0.06
10450 H 65.93254212470984 103.46960178862835 1.539238863338241 H 0.0 **** 0.06
10451 C 77.24627444406238 75.82854604368421 45.16786845181805 C 0.0 **** -0.24
10452 H 77.12087625536935 76.74269169403797 44.588140191081436 H 0.0 **** 0.06
10453 H 78.30230176562702 75.56055603996347 45.19929315961474 H 0.0 **** 0.06
10454 H 76.67951504731258 75.023124517408 44.70208228434251 H 0.0 **** 0.06
10455 H 76.8823247749774 75.9904574522462 46.182955761243974 H 0.0 **** 0.06
10456 C 69.54284543246627 2.235995122986708 61.48772252475452 C 0.0 **** -0.24
10457 H 69.96410708035359 1.4337034140039293 62.09213498249105 H 0.0 **** 0.06
10458 H 69.4598726312791 1.9057527619703478 60.45186519755086 H 0.0 **** 0.06
10459 H 70.19331655249408 3.1100227299049834 61.539799479907785 H 0.0 **** 0.06
10460 H 68.55432192496227 2.496424002623314 61.866591841225315 H 0.0 **** 0.06
10461 C 4.582236142804902 46.60768385134486 30.704854354952886 C 0.0 **** -0.24
10462 H 5.121683367731578 45.66068268716862 30.712157660565367 H 0.0 **** 0.06
10463 H 3.8309087621708215 46.60312965357036 31.496284975495826 H 0.0 **** 0.06
10464 H 4.093811690690558 46.740301406321464 29.740300611966063 H 0.0 **** 0.06
10465 H 5.282835197182209 47.42554538507767 30.874643526823206 H 0.0 **** 0.06
10466 C 73.77297728212574 77.30661256915135 5.223699017070459 C 0.0 **** -0.24
10467 H 73.60006148237039 76.84787353688318 6.197167806437889 H 0.0 **** 0.06
10468 H 74.49399658280106 78.1176901130388 5.32713626695346 H 0.0 **** 0.06
10469 H 72.83428703160712 77.7016709866123 4.835358548457762 H 0.0 **** 0.06
10470 H 74.16500339605182 76.55765257665644 4.5344368038933425 H 0.0 **** 0.06
10471 C 57.33683279224846 53.12899501231868 55.483999702280016 C 0.0 **** -0.24
10472 H 56.868080681098036 52.44909002805622 56.19509217986055 H 0.0 **** 0.06
10473 H 57.066602802476154 54.15545711846062 55.73068802983932 H 0.0 **** 0.06
10474 H 56.991282158979914 52.89401800850328 54.47662415345222 H 0.0 **** 0.06
10475 H 58.41920266119632 53.01576936558416 55.53232373937255 H 0.0 **** 0.06
10476 C 27.239211536265316 66.21452177463021 91.33957207644039 C 0.0 **** -0.24
10477 H 28.13447473177638 65.89719435826021 90.80471883230564 H 0.0 **** 0.06
10478 H 26.833518107584837 65.37188059720808 91.9002686043641 H 0.0 **** 0.06
10479 H 26.495769959397137 66.56733142007488 90.62454700278113 H 0.0 **** 0.06
10480 H 27.494494990459998 67.02136002715798 92.02704955920916 H 0.0 **** 0.06
10481 C 107.31511937112595 34.400504466163966 19.100727040426168 C 0.0 **** -0.24
10482 H 106.77071556700572 35.05720159626031 18.42271140452113 H 0.0 **** 0.06
10483 H 107.6240653767377 34.96341481042833 19.98218732427271 H 0.0 **** 0.06
10484 H 108.19577144116613 34.0059139091432 18.593757519282622 H 0.0 **** 0.06
10485 H 106.67023864577178 33.57583336505945 19.40336752148 H 0.0 **** 0.06
10486 C 40.321128236910965 75.85568823453892 55.09421952897682 C 0.0 **** -0.24
10487 H 40.64568599776595 76.69230796653092 54.47695260342266 H 0.0 **** 0.06
10488 H 40.19426307511452 74.97106137243128 54.469577675370545 H 0.0 **** 0.06
10489 H 39.37284752631433 76.10308699516295 55.57130066235584 H 0.0 **** 0.06
10490 H 41.07174063936816 75.6549171532739 55.85935801982225 H 0.0 **** 0.06
10491 C 92.34205631108561 13.943418000846123 89.3777044161825 C 0.0 **** -0.24
10492 H 91.89528098458962 13.294240543421665 88.62532602022429 H 0.0 **** 0.06
10493 H 92.66283853781128 13.344118180178327 90.23045080729128 H 0.0 **** 0.06
10494 H 91.60630066261687 14.678910756729579 89.70705836983029 H 0.0 **** 0.06
10495 H 93.2025658150529 14.458043571755297 88.94931345576742 H 0.0 **** 0.06
10496 C 30.831374062586278 57.32627065306758 29.974438538842705 C 0.0 **** -0.24
10497 H 31.280031327285357 56.76887424779147 29.151608777807013 H 0.0 **** 0.06
10498 H 29.918598025934145 57.811905233657285 29.62807042908836 H 0.0 **** 0.06
10499 H 31.534188473941356 58.081159764915924 30.325757698795094 H 0.0 **** 0.06
10500 H 30.593709615100934 56.642727629853766 30.789530808817467 H 0.0 **** 0.06
10501 C 106.7064780962966 42.670891216452176 21.78130530427965 C 0.0 **** -0.24
10502 H 107.25920151889244 43.38956488914302 22.38578838805073 H 0.0 **** 0.06
10503 H 106.80237253194576 41.67682464481399 22.220915241007923 H 0.0 **** 0.06
10504 H 107.10939177220381 42.6616125855888 20.7689045415611 H 0.0 **** 0.06
10505 H 105.65413873050616 42.95485579058342 21.75053376404739 H 0.0 **** 0.06
10506 C 88.21900939637754 22.900531019013215 13.231767604890592 C 0.0 **** -0.24
10507 H 88.49730510047426 22.078758916527846 12.573644617856104 H 0.0 **** 0.06
10508 H 87.29765266267304 23.358261472151867 12.871693358115024 H 0.0 **** 0.06
10509 H 89.01517048823793 23.645325808697862 13.239775589277173 H 0.0 **** 0.06
10510 H 88.06684383811233 22.52166575869461 14.242707093649969 H 0.0 **** 0.06
10511 C 54.44608548971497 50.84990750631613 9.549740753441236 C 0.0 **** -0.24
10512 H 55.323379606370985 50.60859660670536 10.149451448293034 H 0.0 **** 0.06
10513 H 53.775275489274456 51.484838077348115 10.127285475668348 H 0.0 **** 0.06
10514 H 53.93032476332018 49.93019115491347 9.274894367296758 H 0.0 **** 0.06
10515 H 54.75813747970894 51.37591338476625 8.646793746358004 H 0.0 **** 0.06
10516 C 59.12333897787937 73.77240659545132 16.090416790115 C 0.0 **** -0.24
10517 H 59.43549404610894 74.66106773965231 15.540161814189219 H 0.0 **** 0.06
10518 H 58.30483799328681 74.03048440718018 16.762340030519795 H 0.0 **** 0.06
10519 H 59.96344170420832 73.39105347626895 16.669448732833445 H 0.0 **** 0.06
10520 H 58.78994536837325 73.00887359435086 15.38664481964608 H 0.0 **** 0.06
10521 C 39.162682673248696 102.28537438873457 75.6469373787817 C 0.0 **** -0.24
10522 H 38.12290352868763 102.0702870742993 75.39891786062952 H 0.0 **** 0.06
10523 H 39.209768087490374 102.77356650108379 76.62122859409578 H 0.0 **** 0.06
10524 H 39.58694681396736 102.94455886848158 74.88965564864003 H 0.0 **** 0.06
10525 H 39.72890630466179 101.35534232483963 75.67814547729398 H 0.0 **** 0.06
10526 C 9.79410983431995 24.993875278113848 83.63549698597251 C 0.0 **** -0.24
10527 H 10.636196454419807 25.458650609386382 83.1228744451326 H 0.0 **** 0.06
10528 H 8.953361139297806 25.68756229811035 83.65428072403807 H 0.0 **** 0.06
10529 H 10.083048146563769 24.744033101592606 84.65574712107741 H 0.0 **** 0.06
10530 H 9.50399976264302 24.085928099113943 83.1067362360588 H 0.0 **** 0.06
10531 C 108.42909496084738 49.683932486228514 43.87878455757981 C 0.0 **** -0.24
10532 H 108.26762096564448 50.473461520520175 43.145415704637514 H 0.0 **** 0.06
10533 H 109.2001751387557 49.995321641271346 44.58408311837749 H 0.0 **** 0.06
10534 H 108.7491648080921 48.775079058024005 43.36904578949451 H 0.0 **** 0.06
10535 H 107.50097381160064 49.49246436864303 44.41611768596629 H 0.0 **** 0.06
10536 C 84.18663715908116 85.17650019146902 45.97898880668396 C 0.0 **** -0.24
10537 H 83.39188907976074 85.08274350247714 46.7189084150055 H 0.0 **** 0.06
10538 H 84.31377488580745 86.22601754940007 45.71416969636556 H 0.0 **** 0.06
10539 H 83.92220113071326 84.60618265797328 45.08822487146335 H 0.0 **** 0.06
10540 H 85.11715321623672 84.7902457338844 46.39465599482094 H 0.0 **** 0.06
10541 C 41.34492012219899 29.792157898159317 106.050034646955 C 0.0 **** -0.24
10542 H 40.58128362597471 30.496087277237237 105.721296869953 H 0.0 **** 0.06
10543 H 42.27947993786711 29.999968261370192 105.52814892259192 H 0.0 **** 0.06
10544 H 41.022813859680085 28.775044145027152 105.82631374240225 H 0.0 **** 0.06
10545 H 41.49713488005723 29.896621232725103 107.12470482282953 H 0.0 **** 0.06
10546 C 40.8872059806033 102.95177625464714 68.346928206815 C 0.0 **** -0.24
10547 H 40.834667298308766 103.59714494552816 67.4706447167095 H 0.0 **** 0.06
10548 H 41.54918889249351 102.11047596228582 68.13993704046572 H 0.0 **** 0.06
10549 H 39.89071780727823 102.58050326039393 68.58545813990435 H 0.0 **** 0.06
10550 H 41.27599260330487 103.51901488711906 69.19307370112278 H 0.0 **** 0.06
10551 C 6.04460868459816 13.356795341902483 42.364417344220726 C 0.0 **** -0.24
10552 H 6.380164677186087 14.148052686414928 41.69404442330199 H 0.0 **** 0.06
10553 H 6.534163148723991 12.420760823539823 42.09473662061555 H 0.0 **** 0.06
10554 H 4.964552833220239 13.24132012649443 42.278227696916446 H 0.0 **** 0.06
10555 H 6.301007670755752 13.618699396967457 43.39105978459867 H 0.0 **** 0.06
10556 C 33.3089854185622 51.15224709197213 108.23713289834988 C 0.0 **** -0.24
10557 H 32.461677395663514 51.71875603773634 107.84965304507787 H 0.0 **** 0.06
10558 H 32.95856440560203 50.44279343882499 108.98675713003743 H 0.0 **** 0.06
10559 H 34.02599714281291 51.83633745632517 108.68991802878246 H 0.0 **** 0.06
10560 H 33.787796391685106 50.61125462838169 107.42067280051481 H 0.0 **** 0.06
10561 C 106.72274761913785 87.66446949658778 40.16914613721133 C 0.0 **** -0.24
10562 H 106.59954115287654 86.67306671238546 40.60439838570471 H 0.0 **** 0.06
10563 H 106.57142572486637 87.60903441703469 39.09024086147821 H 0.0 **** 0.06
10564 H 107.727853330754 88.03053604404367 40.377104364358956 H 0.0 **** 0.06
10565 H 105.99143027747553 88.34590645726738 40.603836233070524 H 0.0 **** 0.06
10566 C 2.0801851476938964 7.522820246488891 61.17894141907067 C 0.0 **** -0.24
10567 H 2.7988885353007333 7.440592681307976 60.36453620379484 H 0.0 **** 0.06
10568 H 2.5237329691563843 7.135368095634902 62.096149697114754 H 0.0 **** 0.06
10569 H 1.1871571609301554 6.946355594354429 60.935299394761614 H 0.0 **** 0.06
10570 H 1.8084567870043884 8.56965714125512 61.32089621436286 H 0.0 **** 0.06
10571 C 12.10249679768921 37.29247792967641 41.38244121541766 C 0.0 **** -0.24
10572 H 11.938258579986055 37.64857041227356 40.36594145508235 H 0.0 **** 0.06
10573 H 13.14947503877168 37.01585772170458 41.50554147277717 H 0.0 **** 0.06
10574 H 11.472461862060939 36.422348190040566 41.56922216131767 H 0.0 **** 0.06
10575 H 11.849791709938092 38.083135394687076 42.08905977249336 H 0.0 **** 0.06
10576 C 61.22639948825878 22.815473295876856 56.47180156393657 C 0.0 **** -0.24
10577 H 62.10796967813917 23.393905922867646 56.74941027250354 H 0.0 **** 0.06
10578 H 61.175749168863206 21.91362246217618 57.0817683459523 H 0.0 **** 0.06
10579 H 61.291146325265345 22.539800978346108 55.41903354397188 H 0.0 **** 0.06
10580 H 60.33157205619989 23.416394902623466 56.63560015971761 H 0.0 **** 0.06
10581 C 107.38360470970753 16.125687499568812 95.24021494555625 C 0.0 **** -0.24
10582 H 106.94409253709449 16.686103176335394 94.4153215208965 H 0.0 **** 0.06
10583 H 106.592683331525 15.638720442369674 95.8113702328191 H 0.0 **** 0.06
10584 H 107.93342926284075 16.807253287958787 95.88920562075953 H 0.0 **** 0.06
10585 H 108.06394654026468 15.371617175289785 94.84515573982725 H 0.0 **** 0.06
10586 C 28.340242726715672 16.78508748690956 61.263289564539534 C 0.0 **** -0.24
10587 H 29.374215422418928 17.00781016714525 60.99766013634651 H 0.0 **** 0.06
10588 H 28.29961018928175 15.835207501087567 61.796900753123566 H 0.0 **** 0.06
10589 H 27.739022018662354 16.719192106442208 60.35640736194813 H 0.0 **** 0.06
10590 H 27.95087349247484 17.577970909222742 61.90063818286481 H 0.0 **** 0.06
10591 C 62.199323018124346 75.78843131839437 8.230992370180587 C 0.0 **** -0.24
10592 H 61.437137575481984 75.6638703992079 7.460700298646998 H 0.0 **** 0.06
10593 H 62.39334223257322 74.82862399519627 8.709118168628848 H 0.0 **** 0.06
10594 H 61.84879514964041 76.50317570410925 8.976041748258694 H 0.0 **** 0.06
10595 H 63.11811611268968 76.15949224053804 7.775294032034708 H 0.0 **** 0.06
10596 C 95.91188465998228 64.26037261684745 83.64402988270894 C 0.0 **** -0.24
10597 H 96.15420956750638 65.31898664727994 83.55172697212089 H 0.0 **** 0.06
10598 H 96.77925717544137 63.72091602964291 84.02659942255536 H 0.0 **** 0.06
10599 H 95.63993617526187 63.864175074086276 82.66491014208165 H 0.0 **** 0.06
10600 H 95.07514381085426 64.13699663016003 84.33093084749333 H 0.0 **** 0.06
10601 C 90.86454244660712 12.734972055229136 46.141952845955416 C 0.0 **** -0.24
10602 H 90.86584101712307 11.895806756497365 45.44547037153012 H 0.0 **** 0.06
10603 H 90.01436468584302 13.38420805764406 45.92593341657823 H 0.0 **** 0.06
10604 H 91.79055086371221 13.299200530205937 46.03130700517124 H 0.0 **** 0.06
10605 H 90.78564985381985 12.360220419453043 47.16215331761396 H 0.0 **** 0.06
10606 C 97.93624523227989 74.05683433645508 8.307101807869913 C 0.0 **** -0.24
10607 H 99.02392912525673 74.1129895909262 8.355145748844222 H 0.0 **** 0.06
10608 H 97.52536463271527 75.06091511547056 8.200599237935705 H 0.0 **** 0.06
10609 H 97.55547235216024 73.60335249664244 9.222520359100713 H 0.0 **** 0.06
10610 H 97.64082450649568 73.45011285292018 7.450933883538141 H 0.0 **** 0.06
10611 C 76.56257651295317 28.175987187392195 82.15154651816164 C 0.0 **** -0.24
10612 H 77.27637691723316 28.4278888230713 82.93618301856014 H 0.0 **** 0.06
10613 H 75.57465262271967 28.03876519943546 82.59124229833611 H 0.0 **** 0.06
10614 H 76.87389519953027 27.25517198557688 81.6588225814858 H 0.0 **** 0.06
10615 H 76.5262398503495 28.983940257917737 81.42133811846486 H 0.0 **** 0.06
10616 C 73.88854501255804 50.707814895358766 103.8699623605826 C 0.0 **** -0.24
10617 H 74.88860566462287 50.27765935172911 103.82124136524976 H 0.0 **** 0.06
10618 H 73.42607240253133 50.66301452809515 102.88305812872039 H 0.0 **** 0.06
10619 H 73.95496327501013 51.74654131353858 104.19267721383127 H 0.0 **** 0.06
10620 H 73.28425094603307 50.14434393438147 104.58045865866029 H 0.0 **** 0.06
10621 C 44.43366222333168 95.91736841153869 29.164582506927673 C 0.0 **** -0.24
10622 H 44.375395352504995 95.98092826638069 28.077450022418276 H 0.0 **** 0.06
10623 H 43.5535822694404 95.39732955516288 29.544412446368312 H 0.0 **** 0.06
10624 H 44.47395727114967 96.92138887392252 29.58569416638076 H 0.0 **** 0.06
10625 H 45.331680973800616 95.367699935255 29.44769517743549 H 0.0 **** 0.06
10626 C 19.130445230154123 86.68109053480404 16.962650290248888 C 0.0 **** -0.24
10627 H 19.65725624984566 85.93021150999579 17.55280601443443 H 0.0 **** 0.06
10628 H 19.258064785061833 87.66063567468154 17.424313016026172 H 0.0 **** 0.06
10629 H 18.069731584870283 86.4335993010699 16.922982833112393 H 0.0 **** 0.06
10630 H 19.537699402806084 86.69958195356935 15.951471770784519 H 0.0 **** 0.06
10631 C 52.98207733416775 109.10991449608926 57.00019545555489 C 0.0 **** -0.24
10632 H 53.56091487464952 108.68821839384168 57.82152628464641 H 0.0 **** 0.06
10633 H 53.14879886389599 108.52073480316565 56.09820925588957 H 0.0 **** 0.06
10634 H 53.295564280211586 110.13915065265431 56.82508480466663 H 0.0 **** 0.06
10635 H 51.9220137982617 109.09071819352982 57.255445768554125 H 0.0 **** 0.06
10636 C 51.5893993341881 79.53441518585544 101.73546713011274 C 0.0 **** -0.24
10637 H 51.65715892397305 80.55503107853299 102.11280216302961 H 0.0 **** 0.06
10638 H 50.99182127415839 79.52441875372268 100.82428912101474 H 0.0 **** 0.06
10639 H 51.117905751953955 78.90081898499909 102.48674904996 H 0.0 **** 0.06
10640 H 52.589240134209135 79.16011409751968 101.51922223181458 H 0.0 **** 0.06
10641 C 92.05351611109887 88.12640395958391 0.09145900316026712 C 0.0 **** -0.24
10642 H 91.30075069384421 88.70747660584448 0.6239988229333875 H 0.0 **** 0.06
10643 H 91.63633213690355 87.76560342213185 -0.8487523416158069 H 0.0 **** 0.06
10644 H 92.35735863355575 87.27846710183547 0.704604686214239 H 0.0 **** 0.06
10645 H 92.9198969373 88.75539269129371 -0.11360028603668582 H 0.0 **** 0.06
10646 C 90.68518683697036 31.102052991232938 59.40375019884067 C 0.0 **** -0.24
10647 H 91.25146537141433 30.386106928546994 59.99928584906371 H 0.0 **** 0.06
10648 H 90.70943553792426 32.07713887892748 59.8890205505823 H 0.0 **** 0.06
10649 H 89.6526431095665 30.764410801432064 59.316005949005046 H 0.0 **** 0.06
10650 H 91.12769450481363 31.178394651871173 58.41098903211861 H 0.0 **** 0.06
10651 C 84.68133655261113 104.44042797908745 83.96174253856401 C 0.0 **** -0.24
10652 H 84.0942089748659 104.8432025726884 83.13667667659266 H 0.0 **** 0.06
10653 H 84.04357027574969 104.32363746390598 84.83795199771052 H 0.0 **** 0.06
10654 H 85.49794871629905 105.123745429832 84.19320886853899 H 0.0 **** 0.06
10655 H 85.08896517425865 103.46984194039909 83.67650126542213 H 0.0 **** 0.06
10656 C 104.52961907764053 17.84485480817196 15.75358687884895 C 0.0 **** -0.24
10657 H 104.4537408630557 17.14119746239129 16.583099231488248 H 0.0 **** 0.06
10658 H 105.22245762555195 18.643913224584196 16.017867543994782 H 0.0 **** 0.06
10659 H 103.5470138945873 18.26992727513114 15.546694732886309 H 0.0 **** 0.06
10660 H 104.89433863718972 17.325445344107962 14.868104380673856 H 0.0 **** 0.06
10661 C 32.24630951847327 9.678802157182247 30.711863220601884 C 0.0 **** -0.24
10662 H 32.230909770232444 8.59069392508789 30.765174894984632 H 0.0 **** 0.06
10663 H 32.84705763319978 10.0741557296314 31.53166940337786 H 0.0 **** 0.06
10664 H 31.2279663762331 10.060288489481337 30.790694174350016 H 0.0 **** 0.06
10665 H 32.67860330605638 9.990378454065706 29.760557698039797 H 0.0 **** 0.06
10666 C 19.86163039217928 60.679236856491116 65.55212430004744 C 0.0 **** -0.24
10667 H 20.717061049144377 60.53242582576479 66.21105505976465 H 0.0 **** 0.06
10668 H 20.036072420341497 60.15878984424586 64.60932111158985 H 0.0 **** 0.06
10669 H 19.728643615424232 61.74402223679181 65.36035235020194 H 0.0 **** 0.06
10670 H 18.965000463101433 60.27983816251299 66.02657170468817 H 0.0 **** 0.06
10671 C 35.976692490112754 25.18426127172046 48.55040012442134 C 0.0 **** -0.24
10672 H 36.79599590480453 24.482395922223986 48.39134396401065 H 0.0 **** 0.06
10673 H 36.278555039942376 25.936733947565983 49.278282456394 H 0.0 **** 0.06
10674 H 35.1049015925214 24.646674524941147 48.92273325686895 H 0.0 **** 0.06
10675 H 35.72702971899278 25.66956412455926 47.60676962771837 H 0.0 **** 0.06
10676 C 60.096179016961656 36.66999906139972 14.140447036787805 C 0.0 **** -0.24
10677 H 60.789201079280076 36.928070922865345 14.941218664315159 H 0.0 **** 0.06
10678 H 60.65956546503742 36.403370270389814 13.24562710209048 H 0.0 **** 0.06
10679 H 59.45583677545778 37.52415158377431 13.924949834728096 H 0.0 **** 0.06
10680 H 59.482903746163004 35.824127807949736 14.448927282297944 H 0.0 **** 0.06
10681 C 1.4459233421183342 5.032151808844461 29.570888030874954 C 0.0 **** -0.24
10682 H 2.4388089720230255 5.029982349783751 29.119793425858575 H 0.0 **** 0.06
10683 H 0.8296973962205811 5.791335933991661 29.088525154948172 H 0.0 **** 0.06
10684 H 1.5302887810778714 5.254744561676603 30.63491755967874 H 0.0 **** 0.06
10685 H 0.9853174481646931 4.052716036778023 29.439424448416673 H 0.0 **** 0.06
10686 C 1.4175517660384997 27.924757488520555 84.32234981181477 C 0.0 **** -0.24
10687 H 2.2165688956283986 28.30091266725386 83.68274382625168 H 0.0 **** 0.06
10688 H 0.45797156231813574 28.068907348424297 83.82783650009617 H 0.0 **** 0.06
10689 H 1.4244300695681744 28.46659102520016 85.26843067537658 H 0.0 **** 0.06
10690 H 1.574795528833036 26.862575579932134 84.51154253771819 H 0.0 **** 0.06
10691 C 78.96875451280434 24.81195834038533 48.82504866469736 C 0.0 **** -0.24
10692 H 78.49871326583155 24.18291329593808 49.58196840544775 H 0.0 **** 0.06
10693 H 79.99133937890855 24.474625356536592 48.656981731615815 H 0.0 **** 0.06
10694 H 78.97791194565522 25.846365537506557 49.16747926724702 H 0.0 **** 0.06
10695 H 78.40506171367203 24.742667949357838 47.89443050565404 H 0.0 **** 0.06
10696 C 90.42019256227502 43.38092243877428 81.217738503065 C 0.0 **** -0.24
10697 H 90.59065898867829 42.78931333599235 80.31768529213969 H 0.0 **** 0.06
10698 H 90.76369985478482 42.822789088096215 82.08839902203863 H 0.0 **** 0.06
10699 H 89.35501481681547 43.590607204164584 81.31794607942044 H 0.0 **** 0.06
10700 H 90.97015855542134 44.31853700342119 81.14534282243585 H 0.0 **** 0.06
10701 C 34.12134859750992 102.09489692615011 81.75361225689863 C 0.0 **** -0.24
10702 H 33.68573531912253 103.08650085911614 81.63746365754389 H 0.0 **** 0.06
10703 H 33.46009333537947 101.3523500202171 81.30564965388584 H 0.0 **** 0.06
10704 H 34.24808739567678 101.87583080535012 82.81386325509143 H 0.0 **** 0.06
10705 H 35.091887485961166 102.06405972383425 81.25781368234487 H 0.0 **** 0.06
10706 C 82.5626736986593 43.45614167225073 36.952943230572714 C 0.0 **** -0.24
10707 H 82.45423463982877 42.87773396697272 37.87095216708292 H 0.0 **** 0.06
10708 H 83.34260152008852 43.01267364245202 36.33385957802233 H 0.0 **** 0.06
10709 H 82.83460296554216 44.48246047927171 37.20175660858257 H 0.0 **** 0.06
10710 H 81.61871464226653 43.45209540574863 36.40829492955095 H 0.0 **** 0.06
10711 C 61.76579528775005 19.439100485179445 101.5204705896642 C 0.0 **** -0.24
10712 H 61.47513977125635 18.612300269701397 102.16851737411858 H 0.0 **** 0.06
10713 H 61.9946719355782 19.056332702760013 100.52494245808244 H 0.0 **** 0.06
10714 H 62.647233459308836 19.92913316943535 101.93245543977416 H 0.0 **** 0.06
10715 H 60.94779335675054 20.154901822094782 101.45652509967513 H 0.0 **** 0.06
10716 C 36.79796728454414 105.14274088717562 22.179938960108075 C 0.0 **** -0.24
10717 H 37.02888458110107 104.22696154030885 22.72545094479915 H 0.0 **** 0.06
10718 H 35.732694921009085 105.17063344047452 21.952339257268108 H 0.0 **** 0.06
10719 H 37.370043480198206 105.16570956160757 21.2523560069653 H 0.0 **** 0.06
10720 H 37.062347598048575 106.00571447310153 22.79201866128932 H 0.0 **** 0.06
10721 C 22.325536138721276 10.152043267841194 35.68164050729804 C 0.0 **** -0.24
10722 H 21.770860945580267 10.597400767436113 34.85560660801717 H 0.0 **** 0.06
10723 H 22.668667754268313 10.937804460566724 36.35457133618552 H 0.0 **** 0.06
10724 H 23.184328140055896 9.607049354267929 35.2902254100256 H 0.0 **** 0.06
10725 H 21.676568456747162 9.464603622791117 36.225596958429904 H 0.0 **** 0.06
10726 C 9.316108923014653 16.94556797699064 95.04840296588787 C 0.0 **** -0.24
10727 H 8.387918743857455 16.41286808143854 94.84388981756894 H 0.0 **** 0.06
10728 H 9.160032530866275 17.64750529667538 95.8673394738453 H 0.0 **** 0.06
10729 H 9.626121771637784 17.49032942279641 94.15607571950332 H 0.0 **** 0.06
10730 H 10.091914678854295 16.230977098199578 95.32450657046832 H 0.0 **** 0.06
10731 C 82.20371683347692 12.461828474089938 87.46642119369807 C 0.0 **** -0.24
10732 H 82.77004239862535 13.317287521828721 87.09939259434987 H 0.0 **** 0.06
10733 H 82.097595183871 11.726336795862839 86.66896081689558 H 0.0 **** 0.06
10734 H 81.21727633999114 12.792190193822663 87.79105810630529 H 0.0 **** 0.06
10735 H 82.73102938056384 12.01200521362831 88.30841492129613 H 0.0 **** 0.06
10736 C 5.336590976634838 107.89245956968091 106.64980751495062 C 0.0 **** -0.24
10737 H 4.561376613049163 107.4731014940603 106.00934416377629 H 0.0 **** 0.06
10738 H 5.408604659557213 107.30559401573373 107.56545303015145 H 0.0 **** 0.06
10739 H 5.083515106070834 108.92336923670058 106.8982078902377 H 0.0 **** 0.06
10740 H 6.29260412970639 107.86892827736852 106.12699781725547 H 0.0 **** 0.06
10741 C 80.48917925393891 16.035632524217036 50.82338361024685 C 0.0 **** -0.24
10742 H 80.22754933975664 16.590560170213752 51.72466158539811 H 0.0 **** 0.06
10743 H 80.30670304715404 16.659080192284065 49.94783445361688 H 0.0 **** 0.06
10744 H 79.8801921340744 15.13365918318669 50.7615802924102 H 0.0 **** 0.06
10745 H 81.54389921965257 15.760426909239364 50.86041870380177 H 0.0 **** 0.06
10746 C 86.26559350459303 12.674744397976497 67.15961780955536 C 0.0 **** -0.24
10747 H 85.68700932012712 13.48470845783396 67.60340538152602 H 0.0 **** 0.06
10748 H 85.73254370612506 12.27879658257541 66.29474837232004 H 0.0 **** 0.06
10749 H 86.40291361553659 11.881777892589014 67.89562544137294 H 0.0 **** 0.06
10750 H 87.23848755853942 13.052149826839695 66.84658888431773 H 0.0 **** 0.06
10751 C 98.87980422221011 24.32347211045922 43.53336459143928 C 0.0 **** -0.24
10752 H 98.23327656183523 24.84567962403463 44.238428521991324 H 0.0 **** 0.06
10753 H 99.83927303504845 24.8367633774281 43.47077442443789 H 0.0 **** 0.06
10754 H 98.40834427685036 24.31045204995621 42.55058238194272 H 0.0 **** 0.06
10755 H 99.0365777268484 23.299653948667896 43.87407317789305 H 0.0 **** 0.06
10756 C 76.03724953367306 77.5365587079952 54.75504621240003 C 0.0 **** -0.24
10757 H 76.1878035104584 78.34036824877734 55.47561791630483 H 0.0 **** 0.06
10758 H 74.9956354946936 77.52662202637387 54.43435740771383 H 0.0 **** 0.06
10759 H 76.28415454525597 76.58245821638508 55.21889311313981 H 0.0 **** 0.06
10760 H 76.68178885534894 77.698194086988 53.89038328112338 H 0.0 **** 0.06
10761 C 99.26965845770059 14.191743652720405 9.47220000554151 C 0.0 **** -0.24
10762 H 100.12200781416917 13.730827008053293 9.971592933143526 H 0.0 **** 0.06
10763 H 98.94155976991539 15.06100476218979 10.042208112022735 H 0.0 **** 0.06
10764 H 98.45435439743599 13.471812283294692 9.405282548140875 H 0.0 **** 0.06
10765 H 99.5611397038502 14.50326038774299 8.468815281677806 H 0.0 **** 0.06
10766 C 75.69762327344723 52.945404299830244 2.025320865851711 C 0.0 **** -0.24
10767 H 75.37593199992354 52.89238911497682 0.985059362786302 H 0.0 **** 0.06
10768 H 74.82393435821803 52.908623946574096 2.677376718920641 H 0.0 **** 0.06
10769 H 76.23612763009113 53.87858856532961 2.191140220579655 H 0.0 **** 0.06
10770 H 76.35237751316285 52.103244345753126 2.2457097985272014 H 0.0 **** 0.06
10771 C 42.05913744927258 101.57447325892193 102.11025298195435 C 0.0 **** -0.24
10772 H 41.29079217814353 101.71646435409026 102.87024438754806 H 0.0 **** 0.06
10773 H 41.84967482443963 102.21920124586548 101.25630267394898 H 0.0 **** 0.06
10774 H 42.06119455379894 100.53278589638249 101.78718001919516 H 0.0 **** 0.06
10775 H 43.03362386545993 101.82760765333984 102.52708872199293 H 0.0 **** 0.06
10776 C 6.224311372780733 92.91973751830307 47.016985809386426 C 0.0 **** -0.24
10777 H 6.982237040823534 92.5291097845249 47.69688181465625 H 0.0 **** 0.06
10778 H 5.526047485651176 93.54647788864065 47.57299389001673 H 0.0 **** 0.06
10779 H 5.683603235206334 92.0895846653525 46.56069873525786 H 0.0 **** 0.06
10780 H 6.704758413129497 93.51136008190156 46.23904098804988 H 0.0 **** 0.06
10781 C 17.910438992661668 52.56704518879624 68.65275340098228 C 0.0 **** -0.24
10782 H 17.731921669393646 53.31830304052326 69.42274503758557 H 0.0 **** 0.06
10783 H 17.093481489329655 51.844931549335115 68.65323371963481 H 0.0 **** 0.06
10784 H 18.85051062742519 52.05370097171138 68.85685861877243 H 0.0 **** 0.06
10785 H 17.96544807793958 53.05259961974377 67.67827776106492 H 0.0 **** 0.06
10786 C 95.94952396942934 0.9634285093148094 61.08768584102819 C 0.0 **** -0.24
10787 H 97.01650241760501 1.1766561029791518 61.03176808971381 H 0.0 **** 0.06
10788 H 95.79459979632948 -0.11539156668716544 61.08894889908885 H 0.0 **** 0.06
10789 H 95.44528521567764 1.4025855205928082 60.22626241745684 H 0.0 **** 0.06
10790 H 95.54120943087672 1.3907300308052726 62.003732525335636 H 0.0 **** 0.06
10791 C 78.23354328279721 41.643775250717 51.88802435021109 C 0.0 **** -0.24
10792 H 78.19019614713208 42.269975440515964 52.778454667801746 H 0.0 **** 0.06
10793 H 78.18394944312168 40.59435669968167 52.179438225664406 H 0.0 **** 0.06
10794 H 79.16674898599909 41.830088296753786 51.357775011972876 H 0.0 **** 0.06
10795 H 77.39161531234741 41.87966318668589 51.23687532247792 H 0.0 **** 0.06
10796 C 109.39966964816341 67.00884590890438 86.6058723325176 C 0.0 **** -0.24
10797 H 109.39853611530907 66.62052945795536 87.62436234860533 H 0.0 **** 0.06
10798 H 108.79463764205101 67.91499574244169 86.56277175260024 H 0.0 **** 0.06
10799 H 108.98500760356069 66.26051326096882 85.93124173054633 H 0.0 **** 0.06
10800 H 110.42273255774408 67.2397912760191 86.30752282516377 H 0.0 **** 0.06
10801 C 61.89002358195535 68.84991891068944 6.304155090677568 C 0.0 **** -0.24
10802 H 62.17224916457451 69.78991601928959 6.778176199605653 H 0.0 **** 0.06
10803 H 61.75742678905999 68.08325596274182 7.067839515780548 H 0.0 **** 0.06
10804 H 62.67392595670276 68.54159067479804 5.6116641671219725 H 0.0 **** 0.06
10805 H 60.9556087138011 68.98409929523854 5.758194106063527 H 0.0 **** 0.06
10806 C 18.0787817582775 25.897123255651735 92.30103968401319 C 0.0 **** -0.24
10807 H 18.235427275346353 26.858347329041777 91.81125673244848 H 0.0 **** 0.06
10808 H 18.52859166990659 25.917076578563666 93.29342204190559 H 0.0 **** 0.06
10809 H 18.541786253535932 25.108307052835045 91.70764628207425 H 0.0 **** 0.06
10810 H 17.009877503039547 25.704189006772566 92.39066622988959 H 0.0 **** 0.06
10811 C 26.36441290096397 100.97301485358861 55.50893476533657 C 0.0 **** -0.24
10812 H 25.698522797280873 101.74239923467019 55.89990140452956 H 0.0 **** 0.06
10813 H 27.20739110334398 101.44358953625346 55.00368033077491 H 0.0 **** 0.06
10814 H 25.81949393584523 100.34623115779249 54.80233697900674 H 0.0 **** 0.06
10815 H 26.730912573595816 100.35734421817884 56.33082135119017 H 0.0 **** 0.06
10816 C 34.04367155379492 95.05017724040172 28.736107665605374 C 0.0 **** -0.24
10817 H 33.49548361834965 95.18348337391018 29.66890578948744 H 0.0 **** 0.06
10818 H 34.13282363650825 93.98523877489426 28.516403447105176 H 0.0 **** 0.06
10819 H 35.037874748127194 95.4854087099974 28.834527238611543 H 0.0 **** 0.06
10820 H 33.50785714108417 95.54455614774996 27.925816191314084 H 0.0 **** 0.06
10821 C 0.04716152259335615 47.83084147229721 105.27580169018567 C 0.0 **** -0.24
10822 H -0.9715786094029681 48.21306734346598 105.34508243198997 H 0.0 **** 0.06
10823 H 0.7113610550230334 48.458873336442224 105.86980660442524 H 0.0 **** 0.06
10824 H 0.3694079181697134 47.843053439185184 104.23419906315976 H 0.0 **** 0.06
10825 H 0.0774463827431191 46.809693698419835 105.65365461363226 H 0.0 **** 0.06
10826 C 9.459912721246894 7.085615159457367 75.1016796806212 C 0.0 **** -0.24
10827 H 9.588225527780963 6.99191975239858 76.17926994390587 H 0.0 **** 0.06
10828 H 9.767622960426422 8.081711427319535 74.78332845313687 H 0.0 **** 0.06
10829 H 8.411689460481966 6.929516105657182 74.84606872071723 H 0.0 **** 0.06
10830 H 10.071924478195996 6.337917092280293 74.59704408812016 H 0.0 **** 0.06
10831 C 42.54419390060917 87.53143986038002 96.44421941247555 C 0.0 **** -0.24
10832 H 42.25571820294789 87.84710109858464 97.44651756479556 H 0.0 **** 0.06
10833 H 43.630053232560385 87.5544648073931 96.35344929438003 H 0.0 **** 0.06
10834 H 42.10331942879185 88.20513244424714 95.70998795884972 H 0.0 **** 0.06
10835 H 42.18572321710036 86.51681017167982 96.26662916194738 H 0.0 **** 0.06
10836 C 13.537256672768422 36.92477301816527 22.12205952751769 C 0.0 **** -0.24
10837 H 13.968323218394033 36.262125603540866 22.87234873052343 H 0.0 **** 0.06
10838 H 14.199357600711295 37.776903344723735 21.96596606487713 H 0.0 **** 0.06
10839 H 12.565151339355936 37.278204985481494 22.46615390198342 H 0.0 **** 0.06
10840 H 13.4157384996507 36.38150547201164 21.18506083015856 H 0.0 **** 0.06
10841 C 74.15412459468666 26.940872230227853 42.980838833729365 C 0.0 **** -0.24
10842 H 74.89227228849418 26.264581952422247 42.54981876347176 H 0.0 **** 0.06
10843 H 74.27931201123997 26.973728901182596 44.062843631634905 H 0.0 **** 0.06
10844 H 73.15163315259838 26.585502971939093 42.74092114259298 H 0.0 **** 0.06
10845 H 74.29432507521966 27.940468251634513 42.56796047059345 H 0.0 **** 0.06
10846 C 108.08074664721522 74.80910481451745 68.45172259973253 C 0.0 **** -0.24
10847 H 108.42954453083678 74.1650603220493 69.258984386603 H 0.0 **** 0.06
10848 H 108.93744776960528 75.1842129168145 67.89009455623432 H 0.0 **** 0.06
10849 H 107.52471400550621 75.64794138897132 68.87029369524487 H 0.0 **** 0.06
10850 H 107.43173526989432 74.23807749577925 67.78679481281472 H 0.0 **** 0.06
10851 C 40.15173952829359 40.54925340921821 92.61183037070515 C 0.0 **** -0.24
10852 H 39.774441555787185 40.12253484168025 93.54135357369671 H 0.0 **** 0.06
10853 H 39.939339860685756 39.86844176894357 91.7870596190595 H 0.0 **** 0.06
10854 H 41.22858033204337 40.69908884851776 92.69278784125126 H 0.0 **** 0.06
10855 H 39.66437247289005 41.507169788127186 92.42782365459863 H 0.0 **** 0.06
10856 C 66.42055803461997 56.71253898433545 33.54654342134039 C 0.0 **** -0.24
10857 H 66.79238804876621 57.628309819145755 33.087628339854966 H 0.0 **** 0.06
10858 H 65.96366083243483 56.94668112415755 34.507640829444554 H 0.0 **** 0.06
10859 H 67.24870893105607 56.01953903950357 33.696773444122336 H 0.0 **** 0.06
10860 H 65.67823264707437 56.25389074228238 32.892577274912185 H 0.0 **** 0.06
10861 C 8.342766453993278 72.80675121425264 5.328886013034378 C 0.0 **** -0.24
10862 H 7.497167375940435 72.9725454321669 4.662622358683905 H 0.0 **** 0.06
10863 H 9.213075758545102 73.34372840073496 4.950815768864118 H 0.0 **** 0.06
10864 H 8.565792415656034 71.74026254056116 5.3752136637915555 H 0.0 **** 0.06
10865 H 8.096747341205514 73.17069574773063 6.326879940445167 H 0.0 **** 0.06
10866 C 100.63248263662197 47.36397937946987 38.84293568764518 C 0.0 **** -0.24
10867 H 99.90031607813933 46.779624404377785 38.285163974417934 H 0.0 **** 0.06
10868 H 101.62455804838976 46.93697583146093 38.69639147370359 H 0.0 **** 0.06
10869 H 100.38085661439851 47.342835141436126 39.90340263285067 H 0.0 **** 0.06
10870 H 100.6220866330766 48.39357768324487 38.48646959246897 H 0.0 **** 0.06
10871 C 10.813823513781982 1.4528864103729902 2.1596063478437344 C 0.0 **** -0.24
10872 H 10.505489831062363 2.4761903027864767 2.3776577859626684 H 0.0 **** 0.06
10873 H 11.029983684054816 1.3590183056346543 1.0946901556586965 H 0.0 **** 0.06
10874 H 10.010535782958891 0.7665183522829304 2.429968403839041 H 0.0 **** 0.06
10875 H 11.706787598494149 1.2129934845202381 2.735280998397556 H 0.0 **** 0.06
10876 C 84.15632808550342 11.873029232705619 55.26126777517273 C 0.0 **** -0.24
10877 H 85.01165125709042 12.248624017535604 55.82244748506567 H 0.0 **** 0.06
10878 H 83.92923981815997 12.557993466036649 54.44363531558965 H 0.0 **** 0.06
10879 H 83.29364609894594 11.796455899304988 55.92297176470045 H 0.0 **** 0.06
10880 H 84.39138700604946 10.888902322514312 54.85679484048189 H 0.0 **** 0.06
10881 C 6.8568094965767 80.41338855472429 55.1861858623367 C 0.0 **** -0.24
10882 H 7.589375472742205 79.87934775070784 54.58055858420478 H 0.0 **** 0.06
10883 H 7.294737106323428 80.65643252849014 56.15474868502637 H 0.0 **** 0.06
10884 H 5.978435622671254 79.78403824726544 55.33209827313237 H 0.0 **** 0.06
10885 H 6.564883730062281 81.3320250999214 54.67752871327692 H 0.0 **** 0.06
10886 C 63.62809481347725 80.04388559144066 30.20294837924557 C 0.0 **** -0.24
10887 H 64.41338832723838 80.63694834379474 29.73326063446175 H 0.0 **** 0.06
10888 H 62.657140395865724 80.48663435205212 29.981095022173598 H 0.0 **** 0.06
10889 H 63.78299383928997 80.02864794643682 31.28193725137156 H 0.0 **** 0.06
10890 H 63.66103617521941 79.02559065874071 29.815738937151345 H 0.0 **** 0.06
10891 C 24.98178218766762 43.12837954779019 52.615752165113584 C 0.0 **** -0.24
10892 H 24.967445861137914 42.040393489980914 52.68041027330457 H 0.0 **** 0.06
10893 H 24.401778726886224 43.54855679837817 53.4373237800664 H 0.0 **** 0.06
10894 H 24.548625440151337 43.442770094889454 51.66612608769917 H 0.0 **** 0.06
10895 H 26.01159683737374 43.481918542319704 52.67993086450678 H 0.0 **** 0.06
10896 C 22.245241344941917 29.42402126325962 69.4613692030895 C 0.0 **** -0.24
10897 H 22.991411696664642 29.33876479251947 70.2505263101304 H 0.0 **** 0.06
10898 H 22.265452637224655 30.433649465111614 69.05072181760124 H 0.0 **** 0.06
10899 H 21.257221127243128 29.21699697512571 69.87161403155687 H 0.0 **** 0.06
10900 H 22.46780809162871 28.70637083858759 68.67159152254038 H 0.0 **** 0.06
10901 C 100.39727309335302 41.07962347800871 18.634530852123902 C 0.0 **** -0.24
10902 H 100.3201528826097 41.95459228254593 19.279206645894646 H 0.0 **** 0.06
10903 H 101.36762889511634 40.60513511827337 18.779896824132834 H 0.0 **** 0.06
10904 H 100.29398375008385 41.38538173466819 17.59309381832989 H 0.0 **** 0.06
10905 H 99.60493960551116 40.3729295928911 18.885619216460043 H 0.0 **** 0.06
10906 C 49.886762066073 29.02025897770531 108.00889755163618 C 0.0 **** -0.24
10907 H 50.9311067552857 29.326820747645314 107.93874067909988 H 0.0 **** 0.06
10908 H 49.8137193754258 27.94273673370509 107.8560364242116 H 0.0 **** 0.06
10909 H 49.30461236345815 29.536666633329048 107.2448885341027 H 0.0 **** 0.06
10910 H 49.499907226872764 29.274587636033118 108.99510497044585 H 0.0 **** 0.06
10911 C 104.59609771911471 101.32230055526956 108.13557841918715 C 0.0 **** -0.24
10912 H 105.40069072006878 102.04346828481373 108.28367344120409 H 0.0 **** 0.06
10913 H 103.69066989419372 101.68325166780926 108.62512892007359 H 0.0 **** 0.06
10914 H 104.88421139526585 100.36332981553704 108.56673328046799 H 0.0 **** 0.06
10915 H 104.40944424096713 101.20026646101525 107.06886805666637 H 0.0 **** 0.06
10916 C 89.94364704038497 89.02683266333668 26.917800240558737 C 0.0 **** -0.24
10917 H 89.79008728966073 88.3113282331596 27.725558664624465 H 0.0 **** 0.06
10918 H 90.66032411916026 88.61977079857829 26.203649326881298 H 0.0 **** 0.06
10919 H 90.32896619701222 89.96026415689795 27.327228650336444 H 0.0 **** 0.06
10920 H 88.99535556628376 89.21480053493855 26.413978606748724 H 0.0 **** 0.06
10921 C 60.88812539284527 13.778656688877845 9.07114610215271 C 0.0 **** -0.24
10922 H 60.52371299570598 13.820050884148714 10.097697123466503 H 0.0 **** 0.06
10923 H 61.89269136518777 13.354987676608687 9.058952948827269 H 0.0 **** 0.06
10924 H 60.91211295705989 14.784740052297394 8.653568949108632 H 0.0 **** 0.06
10925 H 60.222094820683765 13.153681650216726 8.474629181625886 H 0.0 **** 0.06
10926 C 51.56516508386102 4.732645565139904 55.53108111275873 C 0.0 **** -0.24
10927 H 50.80392746677239 4.827974528253378 56.30571042290333 H 0.0 **** 0.06
10928 H 52.54470037686764 4.6209021315782195 55.99565926936174 H 0.0 **** 0.06
10929 H 51.559849825792185 5.626078483742276 54.905197477898014 H 0.0 **** 0.06
10930 H 51.351703126200846 3.857484631702306 54.917191702554135 H 0.0 **** 0.06
10931 C 34.93643995994171 92.31560716196078 89.98899824256159 C 0.0 **** -0.24
10932 H 35.681698361984274 92.51561234713199 89.22049541258065 H 0.0 **** 0.06
10933 H 35.31726461001762 91.56141671795567 90.67825455421303 H 0.0 **** 0.06
10934 H 34.021247368363504 91.95160572975277 89.52228491431413 H 0.0 **** 0.06
10935 H 34.72382281226663 93.2344953520878 90.53654766387746 H 0.0 **** 0.06
10936 C 60.2940928994838 20.309242933519386 31.200563002611872 C 0.0 **** -0.24
10937 H 60.21039969933163 19.319316111064186 31.648462736447662 H 0.0 **** 0.06
10938 H 59.73301987799623 20.33284269474228 30.26579456543015 H 0.0 **** 0.06
10939 H 61.34317796373753 20.529293815391455 31.000955794679633 H 0.0 **** 0.06
10940 H 59.89064260992403 21.05323021103499 31.886956202246573 H 0.0 **** 0.06
10941 C 68.40689928578303 8.504717960939786 15.005854156676762 C 0.0 **** -0.24
10942 H 69.18129244542723 8.936130769778032 15.641059749164668 H 0.0 **** 0.06
10943 H 68.63674838836806 7.455517653355258 14.815714596663454 H 0.0 **** 0.06
10944 H 68.36874168493023 9.046371264677774 14.06078719921058 H 0.0 **** 0.06
10945 H 67.4422001886071 8.580969874683404 15.507606253241178 H 0.0 **** 0.06
10946 C 46.2732589348671 4.611263939416048 0.16563204628923245 C 0.0 **** -0.24
10947 H 47.20068438758938 4.149545329065148 0.5040205852219231 H 0.0 **** 0.06
10948 H 45.96185073854349 5.368633178915871 0.8856144599863285 H 0.0 **** 0.06
10949 H 45.498224269739865 3.8491464891400966 0.08128070574397839 H 0.0 **** 0.06
10950 H 46.43333122866238 5.076198207705318 -0.806794205643115 H 0.0 **** 0.06
10951 C 42.187918824063786 88.22784681988063 101.258105959685 C 0.0 **** -0.24
10952 H 42.796889430768715 88.10901440813254 102.15453752086658 H 0.0 **** 0.06
10953 H 41.29564058015961 88.80645626229662 101.49991492820114 H 0.0 **** 0.06
10954 H 41.89499651260115 87.24558579967419 100.88581880275375 H 0.0 **** 0.06
10955 H 42.76420789419052 88.7487035378131 100.49467229676057 H 0.0 **** 0.06
10956 C 30.823041301259842 1.4475777612740188 70.34664289878071 C 0.0 **** -0.24
10957 H 30.090661896429808 2.1642222806086266 69.97623520857411 H 0.0 **** 0.06
10958 H 30.31037605772857 0.6433553683670823 70.87455725128916 H 0.0 **** 0.06
10959 H 31.51127888840699 1.948781713703724 71.02699241753174 H 0.0 **** 0.06
10960 H 31.381658127142707 1.032796570135318 69.50669126708948 H 0.0 **** 0.06
10961 C 5.85465792090163 101.78492608660179 105.8508387606924 C 0.0 **** -0.24
10962 H 6.226033601057409 102.00113273205653 106.85268089715224 H 0.0 **** 0.06
10963 H 5.644439632710217 100.71909568239806 105.76355950015353 H 0.0 **** 0.06
10964 H 6.607842702977848 102.06828007724403 105.11525865578533 H 0.0 **** 0.06
10965 H 4.941492804265749 102.35245212836782 105.67204693731097 H 0.0 **** 0.06
10966 C 34.29093127570462 62.40095224243919 58.17348141561229 C 0.0 **** -0.24
10967 H 33.343102791174886 62.01784493736409 57.795603376974725 H 0.0 **** 0.06
10968 H 34.11045165158416 62.99980030367038 59.06586526819001 H 0.0 **** 0.06
10969 H 34.76395599302086 63.017641584047226 57.41021169685729 H 0.0 **** 0.06
10970 H 34.94528252771909 61.56540735412068 58.42290086684193 H 0.0 **** 0.06
10971 C 12.501863014876193 29.493113662215023 29.0509832519667 C 0.0 **** -0.24
10972 H 11.794303278321934 29.589803269480797 28.227200375581845 H 0.0 **** 0.06
10973 H 12.645817481096259 28.4380434756778 29.28293983522775 H 0.0 **** 0.06
10974 H 12.111316931279788 30.00902009944187 29.92780543361883 H 0.0 **** 0.06
10975 H 13.456106085584125 29.93575631949048 28.763545338063977 H 0.0 **** 0.06
10976 C 64.07965486511782 35.569970668160266 71.58139556553323 C 0.0 **** -0.24
10977 H 63.0650753386885 35.960905679293845 71.6504028733795 H 0.0 **** 0.06
10978 H 64.10715722571217 34.5590592718992 71.98866286757325 H 0.0 **** 0.06
10979 H 64.75471239808218 36.20979112305133 72.15070833536818 H 0.0 **** 0.06
10980 H 64.39242702966219 35.54988893294839 70.53790042359651 H 0.0 **** 0.06
10981 C 70.25101461173455 58.833077847331985 98.4396416929258 C 0.0 **** -0.24
10982 H 69.50050251539119 58.25935647555909 98.98386523981199 H 0.0 **** 0.06
10983 H 71.18343861705688 58.26869265547229 98.404588220607 H 0.0 **** 0.06
10984 H 70.41955261401995 59.78297257621021 98.94524106163182 H 0.0 **** 0.06
10985 H 69.89986642306872 59.01792888286411 97.42440531088282 H 0.0 **** 0.06
10986 C 37.28595441671922 96.15882072343925 50.22328076635175 C 0.0 **** -0.24
10987 H 38.106916083065016 95.95660833360662 50.911069212111606 H 0.0 **** 0.06
10988 H 37.256728248087 95.3849884135417 49.4559045404508 H 0.0 **** 0.06
10989 H 37.43574931329226 97.13061775411082 49.753231974004756 H 0.0 **** 0.06
10990 H 36.34489489432049 96.16174220405834 50.773057349487836 H 0.0 **** 0.06
10991 C 65.95390096273319 50.85093635074685 51.64073634841964 C 0.0 **** -0.24
10992 H 66.16868383576428 51.911858604072165 51.768412295851306 H 0.0 **** 0.06
10993 H 65.68370566673619 50.656750118277614 50.602648642957234 H 0.0 **** 0.06
10994 H 65.12614600400732 50.567633749098576 52.290929574979174 H 0.0 **** 0.06
10995 H 66.83653876291187 50.26701227774669 51.90217098077932 H 0.0 **** 0.06
10996 C 45.85219576770612 8.6826904479571 54.3500201987217 C 0.0 **** -0.24
10997 H 46.58792205106613 9.373101589987328 53.93777373770507 H 0.0 **** 0.06
10998 H 45.05195122071248 9.247816405153031 54.82839160817715 H 0.0 **** 0.06
10999 H 46.333305992295664 8.038690815246412 55.086211948252526 H 0.0 **** 0.06
11000 H 45.438241727346366 8.07250423008712 53.5481682027473 H 0.0 **** 0.06
11001 C 81.02312516913427 64.09895790329847 69.2235677729547 C 0.0 **** -0.24
11002 H 80.48887703699273 63.40476006111112 69.87127379478919 H 0.0 **** 0.06
11003 H 80.34358471821777 64.47840576264088 68.45943883255512 H 0.0 **** 0.06
11004 H 81.85539998250684 63.58245244880408 68.745935499617 H 0.0 **** 0.06
11005 H 81.40403537911618 64.93065458226567 69.816958833051 H 0.0 **** 0.06
11006 C 46.431838233397954 16.94826283616959 72.79667111034661 C 0.0 **** -0.24
11007 H 46.78451529902303 16.621204959643592 73.77534774146937 H 0.0 **** 0.06
11008 H 47.23225723017736 16.8323565667651 72.06538862860361 H 0.0 **** 0.06
11009 H 46.136244245601574 17.995812028912553 72.85026889001864 H 0.0 **** 0.06
11010 H 45.57593909114027 16.343093114872488 72.498855564101 H 0.0 **** 0.06
11011 C 89.9602475015082 64.05662875224573 25.85571809296431 C 0.0 **** -0.24
11012 H 90.75195054999833 64.7751410208906 25.639035466977717 H 0.0 **** 0.06
11013 H 90.07720202837274 63.183126721672124 25.2147066432495 H 0.0 **** 0.06
11014 H 88.9910718457194 64.51867848935194 25.669153286545452 H 0.0 **** 0.06
11015 H 90.02284012879912 63.75308906874159 26.900528920882834 H 0.0 **** 0.06
11016 C 85.9989263897985 87.76226760780777 6.186878006322143 C 0.0 **** -0.24
11017 H 86.94023194834477 87.21264781295787 6.158685258467575 H 0.0 **** 0.06
11018 H 85.40145401972319 87.50255873298279 5.312101459066456 H 0.0 **** 0.06
11019 H 86.2036585164814 88.8327404108619 6.183474406171456 H 0.0 **** 0.06
11020 H 85.45235651495369 87.49861884281124 7.091929677532244 H 0.0 **** 0.06
11021 C 34.74008319919284 20.82641220709128 69.17751447610277 C 0.0 **** -0.24
11022 H 34.36419371573356 21.683203676110395 68.61805281341805 H 0.0 **** 0.06
11023 H 35.10773082182203 21.159789222954416 70.14790143342242 H 0.0 **** 0.06
11024 H 35.55303927602591 20.35890147873822 68.62102543672967 H 0.0 **** 0.06
11025 H 33.93633083363102 20.104530980658893 69.32034467174628 H 0.0 **** 0.06
11026 C 4.959822880794867 18.333246086444092 40.668339379182726 C 0.0 **** -0.24
11027 H 5.438763446886577 17.539865440541774 41.24218251950549 H 0.0 **** 0.06
11028 H 5.443244942106507 18.419755373190355 39.69545290236164 H 0.0 **** 0.06
11029 H 5.051347268704816 19.27673581616523 41.205576974339294 H 0.0 **** 0.06
11030 H 3.9051489287882877 18.09373832547405 40.53032567424498 H 0.0 **** 0.06
11031 C 108.11639778960614 24.03417001487543 6.953042008933551 C 0.0 **** -0.24
11032 H 108.63825504861745 23.085141878944285 6.8290844586827575 H 0.0 **** 0.06
11033 H 108.84246693788043 24.82458768853877 7.145570970589915 H 0.0 **** 0.06
11034 H 107.42485302002149 23.961581633731043 7.7921871694278195 H 0.0 **** 0.06
11035 H 107.56145383168109 24.264193066081873 6.043728287439109 H 0.0 **** 0.06
11036 C 65.21700770906278 102.82308875289405 65.64360115925746 C 0.0 **** -0.24
11037 H 65.94480948747008 102.64027734918506 66.4344332821358 H 0.0 **** 0.06
11038 H 64.74189335088357 103.79094415435077 65.80416933683661 H 0.0 **** 0.06
11039 H 64.45915482075122 102.03954600573428 65.65908169740844 H 0.0 **** 0.06
11040 H 65.72181357331567 102.82112900165731 64.67835145855872 H 0.0 **** 0.06
11041 C 76.58418847553939 72.33983815783742 33.71740818303698 C 0.0 **** -0.24
11042 H 76.02954706266179 71.65389774927519 33.076181559819034 H 0.0 **** 0.06
11043 H 77.6534389478468 72.20042609179438 33.55882522158552 H 0.0 **** 0.06
11044 H 76.34121070184906 72.13698871113016 34.76136165998943 H 0.0 **** 0.06
11045 H 76.30980673580042 73.36657361672775 33.47379813176417 H 0.0 **** 0.06
11046 C 64.16105942501565 3.0483575483692107 67.20155218137924 C 0.0 **** -0.24
11047 H 64.2763982767269 4.061273428770903 67.5879616237875 H 0.0 **** 0.06
11048 H 63.106531695141086 2.774965622418108 67.20612604110917 H 0.0 **** 0.06
11049 H 64.71975012830947 2.354557586549049 67.83031701090299 H 0.0 **** 0.06
11050 H 64.54523867205239 3.0030281823255223 66.18234688597933 H 0.0 **** 0.06
11051 C 47.86287433628173 21.593748875140705 62.93477961638743 C 0.0 **** -0.24
11052 H 47.810763948595984 22.656493646959234 63.171530382544674 H 0.0 **** 0.06
11053 H 48.093714277707875 21.469072858380486 61.87574761099104 H 0.0 **** 0.06
11054 H 46.903036843779326 21.12612584451375 63.155014877869434 H 0.0 **** 0.06
11055 H 48.64177255223556 21.12535330680967 63.53460868667574 H 0.0 **** 0.06
11056 C 92.90679063918978 65.72556934937194 101.93320619367267 C 0.0 **** -0.24
11057 H 92.27549005793361 66.52720886087832 101.55070063550318 H 0.0 **** 0.06
11058 H 93.82654250702414 66.14772610089204 102.33916196044004 H 0.0 **** 0.06
11059 H 93.14894217568319 65.03618248186717 101.12489239197424 H 0.0 **** 0.06
11060 H 92.37495401250266 65.18930195809992 102.72031167791596 H 0.0 **** 0.06
11061 C 71.29044755753677 4.624634479019333 106.79726519967724 C 0.0 **** -0.24
11062 H 71.3120595097763 4.495644205801298 105.7157023323934 H 0.0 **** 0.06
11063 H 72.30531660443654 4.786186520727302 107.16453861250906 H 0.0 **** 0.06
11064 H 70.87428422437591 3.730880536829144 107.26214350004412 H 0.0 **** 0.06
11065 H 70.67191939359742 5.485999760018704 107.04834008859507 H 0.0 **** 0.06
11066 C 22.2465584252834 76.57377046099066 15.504766639791328 C 0.0 **** -0.24
11067 H 22.29105505466016 75.89261016881835 16.355092233183324 H 0.0 **** 0.06
11068 H 22.601750102869044 77.55820199049111 15.809557227359136 H 0.0 **** 0.06
11069 H 21.217075195090505 76.65091856007047 15.155635873529981 H 0.0 **** 0.06
11070 H 22.87566758737514 76.1924900250562 14.700727628699159 H 0.0 **** 0.06
11071 C 96.727872598131 91.4028512098725 42.24444537495651 C 0.0 **** -0.24
11072 H 96.65053424231729 90.82832236846329 43.16731060602791 H 0.0 **** 0.06
11073 H 97.7735958547243 91.63781110967787 42.049149396873815 H 0.0 **** 0.06
11074 H 96.1593434003779 92.32811286112124 42.34550655926705 H 0.0 **** 0.06
11075 H 96.32581948044395 90.81777896923774 41.4174843038208 H 0.0 **** 0.06
11076 C 105.00330355389907 57.31476024568675 21.833156008185142 C 0.0 **** -0.24
11077 H 103.9349314053962 57.501636886015405 21.727709788987738 H 0.0 **** 0.06
11078 H 105.54581449401223 58.2575740996997 21.755503986195237 H 0.0 **** 0.06
11079 H 105.33335044052144 56.6400882751473 21.043267633237008 H 0.0 **** 0.06
11080 H 105.19871793256628 56.861627215589 22.80463091790591 H 0.0 **** 0.06
11081 C 23.07232131454478 76.00016041017687 28.82786742122363 C 0.0 **** -0.24
11082 H 23.45476848393041 75.03636933913361 29.162548988056137 H 0.0 **** 0.06
11083 H 22.752520877816977 76.58508591903882 29.69102543684877 H 0.0 **** 0.06
11084 H 22.22457197275611 75.84332520887563 28.16095090916943 H 0.0 **** 0.06
11085 H 23.857793957415666 76.53769551694475 28.29572021542124 H 0.0 **** 0.06
11086 C 6.103471321836082 63.892102068586496 29.942822646679446 C 0.0 **** -0.24
11087 H 5.464380552079149 63.015674201156116 29.829098798826763 H 0.0 **** 0.06
11088 H 6.614969441778214 63.845107118847835 30.903953744405783 H 0.0 **** 0.06
11089 H 5.4935051921066815 64.79414858079976 29.898694951615283 H 0.0 **** 0.06
11090 H 6.840109940186437 63.91155005506879 29.138883441224053 H 0.0 **** 0.06
11091 C 82.39151292150962 28.464170537808144 69.70103915165716 C 0.0 **** -0.24
11092 H 82.41791051439981 27.819041879932342 70.57843984501449 H 0.0 **** 0.06
11093 H 83.23529359167938 28.229305302091916 69.05217293460935 H 0.0 **** 0.06
11094 H 82.45198661001209 29.50621284794545 70.01457480499408 H 0.0 **** 0.06
11095 H 81.46008357919334 28.301537453633955 69.15873690797325 H 0.0 **** 0.06
11096 C 74.68566849071834 56.514914783827464 11.986990756462607 C 0.0 **** -0.24
11097 H 75.51704404574463 56.7879982859979 12.63772419324146 H 0.0 **** 0.06
11098 H 74.74754580067048 57.0870848255106 11.06052835762472 H 0.0 **** 0.06
11099 H 73.74453352992668 56.73599100677802 12.488618168258753 H 0.0 **** 0.06
11100 H 74.73591806748377 55.44986863016027 11.760227571142607 H 0.0 **** 0.06
11101 C 79.64389362947387 42.1224981575898 13.21975642788098 C 0.0 **** -0.24
11102 H 79.62365677313836 42.28831235687588 12.142648734830985 H 0.0 **** 0.06
11103 H 80.3623580948967 41.33589121037724 13.451210972414842 H 0.0 **** 0.06
11104 H 78.6529451167874 41.82203798741722 13.558870792998192 H 0.0 **** 0.06
11105 H 79.93761406441575 43.043313873226225 13.72368557769002 H 0.0 **** 0.06
11106 C 20.37773635906177 50.433259070843135 27.454390932283957 C 0.0 **** -0.24
11107 H 21.268046224647435 50.06352298321865 27.963524957306447 H 0.0 **** 0.06
11108 H 19.863480035167868 49.603081468535535 26.971184560484602 H 0.0 **** 0.06
11109 H 20.66878972209514 51.16776799263987 26.703665661493346 H 0.0 **** 0.06
11110 H 19.713042374979864 50.901227473000795 28.181334810986158 H 0.0 **** 0.06
11111 C 71.35918111052871 58.61681754720154 15.52252202705671 C 0.0 **** -0.24
11112 H 71.09417592480219 58.78333959566884 16.567437146379888 H 0.0 **** 0.06
11113 H 70.47023174820373 58.31867138239349 14.965847253179334 H 0.0 **** 0.06
11114 H 72.11041425863479 57.829648304275715 15.459583995243548 H 0.0 **** 0.06
11115 H 71.76228074979505 59.53748428436758 15.099532252327123 H 0.0 **** 0.06
11116 C 10.902871300725472 22.34436995247374 74.32179241446451 C 0.0 **** -0.24
11117 H 11.228549992698664 23.368506056280452 74.13990374255968 H 0.0 **** 0.06
11118 H 10.219373111871732 22.326421698252833 75.17056620042916 H 0.0 **** 0.06
11119 H 11.769780320335695 21.721181121534524 74.53906930373779 H 0.0 **** 0.06
11120 H 10.393644638902334 21.96370616832493 73.43690365808669 H 0.0 **** 0.06
11121 C 57.14019151363057 32.244064800776385 40.486045897611405 C 0.0 **** -0.24
11122 H 56.76016435890958 33.00058655562944 41.17302558318747 H 0.0 **** 0.06
11123 H 57.035383095375934 31.257751562141692 40.93683320871688 H 0.0 **** 0.06
11124 H 58.192317231682736 32.43906025545857 40.27774053692738 H 0.0 **** 0.06
11125 H 56.572132377055325 32.28189196048859 39.556113735579174 H 0.0 **** 0.06
11126 C 14.25715791637711 49.2854832372537 72.27838707875318 C 0.0 **** -0.24
11127 H 14.863708660960484 49.09142006593657 71.39415605139703 H 0.0 **** 0.06
11128 H 14.72091865083604 50.074185336390784 72.87101500142998 H 0.0 **** 0.06
11129 H 14.18369989989094 48.37615215087899 72.87585909939085 H 0.0 **** 0.06
11130 H 13.25898053507892 49.59978001293935 71.97281984249821 H 0.0 **** 0.06
11131 C 22.641156468682397 79.47008769524774 8.060344736774145 C 0.0 **** -0.24
11132 H 21.759420468759004 79.91172649618613 8.525718465623338 H 0.0 **** 0.06
11133 H 22.493763968878454 78.39481583340518 7.954128953455147 H 0.0 **** 0.06
11134 H 23.513537042532022 79.65771186665717 8.685895007589222 H 0.0 **** 0.06
11135 H 22.79464206222525 79.91482814910523 7.078034259073146 H 0.0 **** 0.06
11136 C 104.214434845577 108.70319848099687 89.76895248943747 C 0.0 **** -0.24
11137 H 103.41625069512757 108.23954488977033 90.3484757966443 H 0.0 **** 0.06
11138 H 104.65776685938198 109.51562245025889 90.34520235682098 H 0.0 **** 0.06
11139 H 103.80427195084958 109.09902186091529 88.83950902782043 H 0.0 **** 0.06
11140 H 104.97783268984332 107.95905464356879 89.541535359538 H 0.0 **** 0.06
11141 C 37.614905030651016 41.20485400249832 31.097306225402527 C 0.0 **** -0.24
11142 H 38.41906778538066 41.0849353421408 31.823018029756533 H 0.0 **** 0.06
11143 H 36.81264390151193 41.796094416669156 31.539430353187917 H 0.0 **** 0.06
11144 H 37.232199832722586 40.22429985483752 30.814684314434153 H 0.0 **** 0.06
11145 H 37.99704813974549 41.713955489626684 30.212526489622128 H 0.0 **** 0.06
11146 C 10.018796455263782 5.8098145081310975 66.68581679058082 C 0.0 **** -0.24
11147 H 9.467643066103278 5.6796008285569 65.75485107213218 H 0.0 **** 0.06
11148 H 10.835625805750453 6.51497347320209 66.52817615712755 H 0.0 **** 0.06
11149 H 10.42432723515364 4.849358760844268 67.00549390581075 H 0.0 **** 0.06
11150 H 9.348394084776345 6.195592064786041 67.45421527532338 H 0.0 **** 0.06
11151 C 14.920307095376245 69.68696540744904 17.45596801198686 C 0.0 **** -0.24
11152 H 15.326062595275403 69.17428717317375 18.328435429224356 H 0.0 **** 0.06
11153 H 13.852123968286918 69.85342054806804 17.597139481175613 H 0.0 **** 0.06
11154 H 15.079604786457509 69.0752736028204 16.56815878274541 H 0.0 **** 0.06
11155 H 15.423840233628027 70.6462969691395 17.332553078222602 H 0.0 **** 0.06
11156 C 37.4385253046282 106.43745999134833 62.75734397950441 C 0.0 **** -0.24
11157 H 37.200718173883644 107.49899738652641 62.83952726775277 H 0.0 **** 0.06
11158 H 38.395288740909194 106.24274139032863 63.2429501032276 H 0.0 **** 0.06
11159 H 37.501676963386004 106.16011497913047 61.70597944471115 H 0.0 **** 0.06
11160 H 36.65830271727026 105.85225632303133 63.24297160607955 H 0.0 **** 0.06
11161 C 25.915508860435068 0.4710889672922036 66.4567464971862 C 0.0 **** -0.24
11162 H 25.479413032563144 -0.42307842707876375 66.90091190371419 H 0.0 **** 0.06
11163 H 25.38534494460893 0.7145464303550568 65.53577170326662 H 0.0 **** 0.06
11164 H 26.967097010568324 0.2900823803384327 66.23325407343498 H 0.0 **** 0.06
11165 H 25.83017567767476 1.3022604745650739 67.15620986348625 H 0.0 **** 0.06
11166 C 26.009980248795955 60.09402657547065 19.425783019008374 C 0.0 **** -0.24
11167 H 26.874020062059458 60.323127181427935 20.048593519417622 H 0.0 **** 0.06
11168 H 25.966044292065106 59.01929623665674 19.247372737018853 H 0.0 **** 0.06
11169 H 26.09958922420222 60.61695229035098 18.473732715403784 H 0.0 **** 0.06
11170 H 25.100333344611414 60.41573301860058 19.933456502993344 H 0.0 **** 0.06
11171 C 1.1187698480809258 107.10055905955446 99.86917407478289 C 0.0 **** -0.24
11172 H 1.3158992382294539 106.21491491132284 99.2654479032695 H 0.0 **** 0.06
11173 H 1.5204393685621351 107.98036519129818 99.3642386909071 H 0.0 **** 0.06
11174 H 1.5973577581611043 106.9896913763443 100.8424011051361 H 0.0 **** 0.06
11175 H 0.043646153178896085 107.21737750888889 100.00367809115413 H 0.0 **** 0.06
11176 C 77.2424222592968 82.08224668125195 76.15822399336251 C 0.0 **** -0.24
11177 H 77.45648401490928 82.75970416814152 76.98468679783238 H 0.0 **** 0.06
11178 H 76.78531722168603 82.63965235846564 75.34061604315798 H 0.0 **** 0.06
11179 H 76.5574297688637 81.30427258196187 76.4955005234274 H 0.0 **** 0.06
11180 H 78.17042555191284 81.62534256898044 75.81454189789137 H 0.0 **** 0.06
11181 C 73.0190117626239 17.712712830477415 47.80493955044654 C 0.0 **** -0.24
11182 H 73.27157065773599 18.21586541333005 46.87179897890807 H 0.0 **** 0.06
11183 H 73.87638012466948 17.131347589990384 48.14714112054823 H 0.0 **** 0.06
11184 H 72.17117134534027 17.048889155865055 47.64117896145776 H 0.0 **** 0.06
11185 H 72.75920268246767 18.455641534369846 48.55976476249961 H 0.0 **** 0.06
11186 C 23.412067464335905 89.73139327334616 74.46718322676594 C 0.0 **** -0.24
11187 H 24.45696044285991 89.58145184925348 74.74019995106283 H 0.0 **** 0.06
11188 H 22.81946175135849 89.88347649620232 75.36964267592748 H 0.0 **** 0.06
11189 H 23.04612299541796 88.85464675854104 73.93440468361379 H 0.0 **** 0.06
11190 H 23.328210213748065 90.6087429067424 73.82502242347721 H 0.0 **** 0.06
11191 C 41.3585289550575 76.49044557087215 85.37687596627933 C 0.0 **** -0.24
11192 H 41.0476914497612 77.5317195952973 85.46399274104527 H 0.0 **** 0.06
11193 H 40.477148563259135 75.85454773861674 85.29365688056788 H 0.0 **** 0.06
11194 H 41.929931389604434 76.20728829082131 86.26051788816838 H 0.0 **** 0.06
11195 H 41.9797190894314 76.37022078537811 84.48839650015643 H 0.0 **** 0.06
11196 C 54.783774599640765 17.603780144691655 99.83848986143278 C 0.0 **** -0.24
11197 H 54.081787664884644 17.82367556804936 100.64290095982473 H 0.0 **** 0.06
11198 H 55.398855363869586 18.482196393788588 99.64173509694461 H 0.0 **** 0.06
11199 H 54.23167367247629 17.33701630269146 98.93731369559286 H 0.0 **** 0.06
11200 H 55.422785209215704 16.770286561809993 100.13247254684886 H 0.0 **** 0.06
11201 C 105.90402443860756 0.08931071535167501 12.348795234967753 C 0.0 **** -0.24
11202 H 106.50499895511946 -0.2433384803628167 11.503413116117883 H 0.0 **** 0.06
11203 H 105.8600845357387 1.1785502800075909 12.358711754309752 H 0.0 **** 0.06
11204 H 106.35467668414756 -0.2649826324612583 13.276873212107063 H 0.0 **** 0.06
11205 H 104.89605110816842 -0.3149297453289499 12.258217893772525 H 0.0 **** 0.06
11206 C 79.14759448757428 22.292737234176542 26.811547160952273 C 0.0 **** -0.24
11207 H 79.2206245265946 22.619989322891513 25.774398884556064 H 0.0 **** 0.06
11208 H 78.18440656080764 22.596700881997123 27.22217961661505 H 0.0 **** 0.06
11209 H 79.9498498654186 22.747210551757604 27.392584301658417 H 0.0 **** 0.06
11210 H 79.23623117138703 21.20713582699065 26.85769915831213 H 0.0 **** 0.06
11211 C 92.93555276547931 49.442079266128246 95.78926726804542 C 0.0 **** -0.24
11212 H 93.32544833489834 49.25654709624149 94.7885000044214 H 0.0 **** 0.06
11213 H 92.49925812171301 48.524100787024565 96.18496846097514 H 0.0 **** 0.06
11214 H 92.17050332448844 50.21720972795981 95.74274853317516 H 0.0 **** 0.06
11215 H 93.74654448261714 49.76930276764239 96.43964643586858 H 0.0 **** 0.06
11216 C 37.137745824631416 96.52201209352486 3.0769724010319237 C 0.0 **** -0.24
11217 H 36.3140953467449 97.1214451395881 3.4632426672288688 H 0.0 **** 0.06
11218 H 37.90927679481998 97.18010118156172 2.677355616817195 H 0.0 **** 0.06
11219 H 36.77115612755601 95.86816558399056 2.28517657126865 H 0.0 **** 0.06
11220 H 37.55645502940454 95.91833646895924 3.882114748813109 H 0.0 **** 0.06
11221 C 102.6857409485451 6.582241709958595 61.488179465995245 C 0.0 **** -0.24
11222 H 101.90371902211903 6.345403039335338 60.76658607205758 H 0.0 **** 0.06
11223 H 102.42540155151265 7.499779248063078 62.01628755154081 H 0.0 **** 0.06
11224 H 103.63241315755492 6.719503116535719 60.96442097185306 H 0.0 **** 0.06
11225 H 102.78000912980116 5.765297270159351 62.20260376952598 H 0.0 **** 0.06
11226 C 83.95604255966032 25.567505124777675 15.260877467444672 C 0.0 **** -0.24
11227 H 83.8306394225177 25.194184763416537 14.244373735152237 H 0.0 **** 0.06
11228 H 85.01744383574088 25.597232515244503 15.507645554983952 H 0.0 **** 0.06
11229 H 83.43918715488908 24.90700003377281 15.956739059451053 H 0.0 **** 0.06
11230 H 83.53814048886576 26.57171787701863 15.332894681950208 H 0.0 **** 0.06
11231 C 7.989177598434054 16.02578798458765 64.73083495533749 C 0.0 **** -0.24
11232 H 8.019159498237315 15.060985216943916 64.2246032256225 H 0.0 **** 0.06
11233 H 8.849450917676478 16.62194149309868 64.42683715437892 H 0.0 **** 0.06
11234 H 8.016213479761944 15.869687983896782 65.80934073774053 H 0.0 **** 0.06
11235 H 7.070709538652153 16.54699116034062 64.46235684235482 H 0.0 **** 0.06
11236 C 50.0203007943075 27.69272683648643 63.8139831368283 C 0.0 **** -0.24
11237 H 50.12685781041611 28.778037427017864 63.81331622108212 H 0.0 **** 0.06
11238 H 49.90143534325125 27.34013843072904 64.83921255279711 H 0.0 **** 0.06
11239 H 50.909786864098834 27.24035108958941 63.37525703904869 H 0.0 **** 0.06
11240 H 49.144285819073616 27.413790181108823 63.2294355259387 H 0.0 **** 0.06
11241 C 87.38402784002957 23.75249546486957 76.25912141402314 C 0.0 **** -0.24
11242 H 86.46417698704988 24.032526165026013 75.74643433273963 H 0.0 **** 0.06
11243 H 87.68533523052369 22.752262798160217 75.94542504932312 H 0.0 **** 0.06
11244 H 87.21541043918779 23.760025965550398 77.33664654073104 H 0.0 **** 0.06
11245 H 88.17029047395002 24.464082593108202 76.00971686989753 H 0.0 **** 0.06
11246 C 51.30691596384755 61.91039728287227 77.53770238851445 C 0.0 **** -0.24
11247 H 51.83781921441929 62.76326839404349 77.96001204308442 H 0.0 **** 0.06
11248 H 50.329537942403086 62.232944205879036 77.17875872846872 H 0.0 **** 0.06
11249 H 51.17937392231673 61.1453048695176 78.30413538433862 H 0.0 **** 0.06
11250 H 51.8821962086548 61.49943698924231 76.70793546188264 H 0.0 **** 0.06
11251 C 5.787834325824576 97.21147456138002 107.66489630954995 C 0.0 **** -0.24
11252 H 6.503263302871517 96.92558275082095 108.43763380914511 H 0.0 **** 0.06
11253 H 6.126183867305201 96.8322295426204 106.70023019852007 H 0.0 **** 0.06
11254 H 5.712899768258865 98.29830066190274 107.62429187512726 H 0.0 **** 0.06
11255 H 4.811423569701503 96.78833285493474 107.89987284466123 H 0.0 **** 0.06
11256 C 57.15799592390789 86.26659092378722 20.32774153337357 C 0.0 **** -0.24
11257 H 56.08607479062263 86.26735056641063 20.525249422949628 H 0.0 **** 0.06
11258 H 57.346210062612954 86.70556391490004 19.348265150636365 H 0.0 **** 0.06
11259 H 57.529476541208595 85.24208045553763 20.34532863505089 H 0.0 **** 0.06
11260 H 57.668612069589045 86.8521550093242 21.093011272601075 H 0.0 **** 0.06
11261 C 94.07365194839181 44.96651024193869 82.41490558198922 C 0.0 **** -0.24
11262 H 94.29385451952999 45.78808004501231 83.09776049457469 H 0.0 **** 0.06
11263 H 93.23172446232975 45.23911427727805 81.77856211283355 H 0.0 **** 0.06
11264 H 93.8223158645094 44.075430969174334 82.98933374914046 H 0.0 **** 0.06
11265 H 94.94860908017168 44.765188308325946 81.79666099442522 H 0.0 **** 0.06
11266 C 50.557093156304404 33.85896932754517 92.67645358804968 C 0.0 **** -0.24
11267 H 50.43877193712552 34.67283410860594 93.39220291486181 H 0.0 **** 0.06
11268 H 49.705888665929024 33.849897311446455 91.99441212148538 H 0.0 **** 0.06
11269 H 50.60561371100425 32.91042792986127 93.21024360499821 H 0.0 **** 0.06
11270 H 51.47631601211401 34.00417678077227 92.10978970733159 H 0.0 **** 0.06
11271 C 64.0061905006544 26.33635304598548 95.83931746589053 C 0.0 **** -0.24
11272 H 64.87897212472056 26.327276164734815 95.18602982967201 H 0.0 **** 0.06
11273 H 63.107763780749465 26.160676606202195 95.24722278943594 H 0.0 **** 0.06
11274 H 63.932503446626214 27.305780024481308 96.33237976010892 H 0.0 **** 0.06
11275 H 64.10650565625436 25.55277236517742 96.5896780458944 H 0.0 **** 0.06
11276 C 25.130064679225313 84.71505756151691 93.35352218547304 C 0.0 **** -0.24
11277 H 25.649188501166464 84.92412223440212 92.41869266417223 H 0.0 **** 0.06
11278 H 25.853754928555446 84.66316792598866 94.16711776359004 H 0.0 **** 0.06
11279 H 24.606187700687286 83.76181396207534 93.27259942959259 H 0.0 **** 0.06
11280 H 24.41143317594225 85.5089112677125 93.55564316045007 H 0.0 **** 0.06
11281 C 22.328121782221967 70.12075823263129 24.010571638557508 C 0.0 **** -0.24
11282 H 22.64505648585732 69.93789520218837 22.984132971433226 H 0.0 **** 0.06
11283 H 22.321480462295717 71.19317921257394 24.203179931975626 H 0.0 **** 0.06
11284 H 23.019888833612242 69.6318779112531 24.696425291534894 H 0.0 **** 0.06
11285 H 21.32546127599452 69.71818427611612 24.158338474909925 H 0.0 **** 0.06
11286 C 109.62660982412689 29.97468411917319 90.26818251172662 C 0.0 **** -0.24
11287 H 109.18211587429316 29.21723627191514 90.91390130355927 H 0.0 **** 0.06
11288 H 109.39825535337528 30.965843825765376 90.6598514119286 H 0.0 **** 0.06
11289 H 109.21873766521499 29.877608983956065 89.26234278620791 H 0.0 **** 0.06
11290 H 110.70782870365045 29.835652047047773 90.2367541373583 H 0.0 **** 0.06
11291 C 19.630846686751966 98.49632335150112 11.478884418508471 C 0.0 **** -0.24
11292 H 18.645508385838706 98.03971075398843 11.568891092843586 H 0.0 **** 0.06
11293 H 19.822974960372292 98.7424288521176 10.43476869197562 H 0.0 **** 0.06
11294 H 20.38832537886562 97.7980835396055 11.834592229002368 H 0.0 **** 0.06
11295 H 19.664719261023407 99.40598316075891 12.079212319756124 H 0.0 **** 0.06
11296 C 94.28839350188872 84.15487894285695 103.51388575890407 C 0.0 **** -0.24
11297 H 95.3037646093598 84.54413701179988 103.58906910613835 H 0.0 **** 0.06
11298 H 94.10588622973421 83.45615428471831 104.32985375626639 H 0.0 **** 0.06
11299 H 94.16566422685946 83.64103147504301 102.56083427349772 H 0.0 **** 0.06
11300 H 93.57857540129959 84.98016701516633 103.57584347610494 H 0.0 **** 0.06
11301 C 16.659116046310388 87.5006138409265 103.47968410150929 C 0.0 **** -0.24
11302 H 15.92954848442858 88.27407075270965 103.23804701669712 H 0.0 **** 0.06
11303 H 17.245427165150048 87.81251485450446 104.34359952435256 H 0.0 **** 0.06
11304 H 17.32061784893571 87.34679582101172 102.62672614306967 H 0.0 **** 0.06
11305 H 16.138733938851146 86.57054560227229 103.7088574180699 H 0.0 **** 0.06
11306 C 32.96127392931541 58.62589714353474 83.68460738966905 C 0.0 **** -0.24
11307 H 32.73904768714965 57.63398528185176 84.07981149709906 H 0.0 **** 0.06
11308 H 33.49170099295583 59.20683036805693 84.43999116527385 H 0.0 **** 0.06
11309 H 32.03075481388453 59.12926029207728 83.42440646253397 H 0.0 **** 0.06
11310 H 33.5849343028041 58.53075357125864 82.79582884915862 H 0.0 **** 0.06
11311 C 68.09628100181055 105.0929086025065 54.471184645431 C 0.0 **** -0.24
11312 H 69.10201858479599 104.72431054652317 54.67233194784233 H 0.0 **** 0.06
11313 H 67.94028826840167 105.15059368710968 53.39395321217576 H 0.0 **** 0.06
11314 H 67.97729830896381 106.08306010809851 54.910388409211144 H 0.0 **** 0.06
11315 H 67.3663549505888 104.41080068599102 54.907804208555405 H 0.0 **** 0.06
11316 C 76.11582824747009 75.42981391298304 80.23454063539161 C 0.0 **** -0.24
11317 H 76.53135052240887 75.18840457836325 79.25567052852145 H 0.0 **** 0.06
11318 H 75.71088191571721 76.4412304971489 80.21748830222693 H 0.0 **** 0.06
11319 H 76.90141342616073 75.36494824879463 80.98849044782213 H 0.0 **** 0.06
11320 H 75.32159112055336 74.72327049202411 80.47593585705508 H 0.0 **** 0.06
11321 C 1.1153057662272658 16.030512414560064 73.45149754247106 C 0.0 **** -0.24
11322 H 1.0349499579464236 15.037661009859335 73.00969457640196 H 0.0 **** 0.06
11323 H 0.1963810548886613 16.263192073353707 73.99099869166784 H 0.0 **** 0.06
11324 H 1.2696377814211246 16.767956433203665 72.66325211437896 H 0.0 **** 0.06
11325 H 1.9581943792207994 16.054559908846272 74.14192085369092 H 0.0 **** 0.06
11326 C 60.16434956446963 67.52301971640452 79.7286775162492 C 0.0 **** -0.24
11327 H 60.55336708121719 66.57294684172086 79.36318368476861 H 0.0 **** 0.06
11328 H 60.56497694092795 68.33693702885444 79.12419659028092 H 0.0 **** 0.06
11329 H 60.46371981150526 67.66080369875573 80.7680739443806 H 0.0 **** 0.06
11330 H 59.07635888320157 67.52005648775747 79.66103603299496 H 0.0 **** 0.06
11331 C 98.6253227854412 90.39894136276072 26.093257308485306 C 0.0 **** -0.24
11332 H 97.87933089319469 90.3882672745941 26.88775275272088 H 0.0 **** 0.06
11333 H 98.83931697847927 91.4295316561624 25.809021446181706 H 0.0 **** 0.06
11334 H 98.24319099834244 89.85534114798621 25.23008531388114 H 0.0 **** 0.06
11335 H 99.53945617338287 89.92195607269997 26.447415563007514 H 0.0 **** 0.06
11336 C 13.14616409170921 61.40251004970622 52.25656509547096 C 0.0 **** -0.24
11337 H 12.552128459911756 60.49396204543041 52.346046760230166 H 0.0 **** 0.06
11338 H 12.561165102296684 62.16993835551622 51.749295087979704 H 0.0 **** 0.06
11339 H 14.047216588308942 61.19246463968963 51.67982493365088 H 0.0 **** 0.06
11340 H 13.424233814129394 61.75437344445794 53.250383126620505 H 0.0 **** 0.06
11341 C 24.11029193322696 108.58664361899204 25.041646302463732 C 0.0 **** -0.24
11342 H 24.101058356384897 108.87649809036756 23.990597290945175 H 0.0 **** 0.06
11343 H 23.211849118960913 108.96363817705446 25.530572155137037 H 0.0 **** 0.06
11344 H 24.992173688602577 109.00690515144667 25.525047453388822 H 0.0 **** 0.06
11345 H 24.138254191898284 107.49967806210724 25.117862132146854 H 0.0 **** 0.06
11346 C 79.64253120836106 43.25779684539066 8.62194822411118 C 0.0 **** -0.24
11347 H 80.33492046492428 43.932143448780266 9.127128094231267 H 0.0 **** 0.06
11348 H 79.16852962366514 43.781747718157305 7.790750327982138 H 0.0 **** 0.06
11349 H 78.87991108270424 42.92591816400585 9.325661156178995 H 0.0 **** 0.06
11350 H 80.18884717588325 42.394177030621904 8.24334484374127 H 0.0 **** 0.06
11351 C 85.54232420967722 81.17848480936006 35.84928693875216 C 0.0 **** -0.24
11352 H 84.63984107749832 80.86979722719082 36.37692321415244 H 0.0 **** 0.06
11353 H 86.34522012216726 80.47226855997674 36.05823806627498 H 0.0 **** 0.06
11354 H 85.83568519606979 82.17290927165065 36.18483299448653 H 0.0 **** 0.06
11355 H 85.34580942408559 81.19964283110582 34.776990254385666 H 0.0 **** 0.06
11356 C 79.11346368607391 14.955367782450697 89.43002378347217 C 0.0 **** -0.24
11357 H 79.19345360794907 16.03922104501662 89.52138925505307 H 0.0 **** 0.06
11358 H 78.06120396429228 14.670590858387154 89.39955243702286 H 0.0 **** 0.06
11359 H 79.59384186344474 14.482474744784263 90.28676578641046 H 0.0 **** 0.06
11360 H 79.60572565815838 14.631556718006017 88.51287307583209 H 0.0 **** 0.06
11361 C 34.44215523867956 39.98493936320739 30.222691525336813 C 0.0 **** -0.24
11362 H 34.14074792798141 39.00892880420122 29.842107902159086 H 0.0 **** 0.06
11363 H 33.5660440103083 40.62834162003395 30.304125658540386 H 0.0 **** 0.06
11364 H 35.1617448589156 40.435180474611286 29.538479122905954 H 0.0 **** 0.06
11365 H 34.899387487954016 39.865907510201055 31.204454175498313 H 0.0 **** 0.06
11366 C 43.09547624022565 54.37843228501985 6.577174889859862 C 0.0 **** -0.24
11367 H 43.71976370833721 53.49055095261075 6.481426693473736 H 0.0 **** 0.06
11368 H 42.19976213458145 54.26038985938069 5.967682419829941 H 0.0 **** 0.06
11369 H 43.65277853135143 55.2528560331077 6.238274867434484 H 0.0 **** 0.06
11370 H 42.81047536494631 54.511920284382335 7.6207836870095775 H 0.0 **** 0.06
11371 C 101.69328618926345 31.874321179050014 101.04365188980103 C 0.0 **** -0.24
11372 H 101.3733759874839 32.243902827754084 100.06884124926918 H 0.0 **** 0.06
11373 H 102.02359374216152 32.71156380811061 101.65901486885261 H 0.0 **** 0.06
11374 H 102.51540350582894 31.170927307756045 100.91326392989974 H 0.0 **** 0.06
11375 H 100.85883831661405 31.371955278476804 101.53312724255007 H 0.0 **** 0.06
11376 C 67.37017271015131 15.547304878176284 37.439437520976895 C 0.0 **** -0.24
11377 H 66.87311282624103 15.5442519270918 36.47026729406508 H 0.0 **** 0.06
11378 H 68.13230526351892 14.768022524347884 37.4591318823865 H 0.0 **** 0.06
11379 H 66.63736494541274 15.360446478181526 38.22430730238119 H 0.0 **** 0.06
11380 H 67.83930149027464 16.51824713188437 37.60406522415012 H 0.0 **** 0.06
11381 C 100.60910709964749 23.24503801503539 70.65119208041047 C 0.0 **** -0.24
11382 H 101.66921696277008 23.011290404302486 70.56080998346029 H 0.0 **** 0.06
11383 H 100.47299459200708 24.326391158008278 70.63580936115274 H 0.0 **** 0.06
11384 H 100.22793513629902 22.844474793731337 71.5906605021175 H 0.0 **** 0.06
11385 H 100.06548446369602 22.797654961787828 69.81898795669206 H 0.0 **** 0.06
11386 C 66.51892078220223 66.76685162584626 36.967935679137376 C 0.0 **** -0.24
11387 H 66.698350816416 66.77813675494227 35.89266390266092 H 0.0 **** 0.06
11388 H 66.22665002339397 65.76354660489616 37.27699340016458 H 0.0 **** 0.06
11389 H 65.7213230763787 67.46943234893382 37.20996688237759 H 0.0 **** 0.06
11390 H 67.43096499577477 67.05818469292709 37.490763907410866 H 0.0 **** 0.06
11391 C 71.21169671892528 67.751972444665 27.11859741007226 C 0.0 **** -0.24
11392 H 71.13619934667712 68.83475376399247 27.025336696300023 H 0.0 **** 0.06
11393 H 71.61964055647671 67.3351448490328 26.19751084133226 H 0.0 **** 0.06
11394 H 70.22078093370794 67.33420593037519 27.29964150646221 H 0.0 **** 0.06
11395 H 71.86879240577214 67.50384285115162 27.951569066862398 H 0.0 **** 0.06
11396 C 47.555778102164254 27.779677063616703 86.99829772366763 C 0.0 **** -0.24
11397 H 47.30430154490929 28.15932852941569 87.98896527812326 H 0.0 **** 0.06
11398 H 47.98668797355177 28.5834120299466 86.4006007350358 H 0.0 **** 0.06
11399 H 46.653475591119815 27.408794881095275 86.51187665216099 H 0.0 **** 0.06
11400 H 48.27735020989152 26.96848598859765 87.09335864216297 H 0.0 **** 0.06
11401 C 63.24861511715925 109.22136047163353 5.2737309707048325 C 0.0 **** -0.24
11402 H 64.02903611861916 108.48908596481853 5.067561247075446 H 0.0 **** 0.06
11403 H 63.06491145922115 109.81779756578834 4.380024292462906 H 0.0 **** 0.06
11404 H 63.56776066171085 109.87250855003643 6.086548346443891 H 0.0 **** 0.06
11405 H 62.33311985483361 108.70389579099853 5.560315319172929 H 0.0 **** 0.06
11406 C 58.11758689545866 96.93168957447438 6.526140130075984 C 0.0 **** -0.24
11407 H 58.836382272948015 97.22285922958162 7.292464689366803 H 0.0 **** 0.06
11408 H 57.229727087269396 96.51555411058382 7.00186282644591 H 0.0 **** 0.06
11409 H 58.565748901741074 96.1839969355729 5.873295356822432 H 0.0 **** 0.06
11410 H 57.83821651021282 97.80722167248751 5.939318488345084 H 0.0 **** 0.06
11411 C 67.05815170817255 98.41044510312497 50.3489033359977 C 0.0 **** -0.24
11412 H 66.9846592984515 97.54087201437216 51.001122865913096 H 0.0 **** 0.06
11413 H 67.63693684653964 98.15156086744615 49.461873677113736 H 0.0 **** 0.06
11414 H 67.55211897355741 99.2230176338143 50.88046426723895 H 0.0 **** 0.06
11415 H 66.05820501548908 98.72648141874457 50.05144152343843 H 0.0 **** 0.06
11416 C 30.874303693380313 90.21435019138818 6.096656038495965 C 0.0 **** -0.24
11417 H 30.670448041446967 89.9746047675336 7.140013045843062 H 0.0 **** 0.06
11418 H 31.105915350030102 91.27648885388777 6.0067257709223725 H 0.0 **** 0.06
11419 H 29.998481802461143 89.98097325360925 5.492203373973425 H 0.0 **** 0.06
11420 H 31.72343382136495 89.62682175178278 5.748490577173314 H 0.0 **** 0.06
11421 C 17.14635098798678 102.55034061232561 43.204065228871826 C 0.0 **** -0.24
11422 H 16.760131501306603 102.37871917392951 44.20829598103785 H 0.0 **** 0.06
11423 H 17.407405137832967 103.60171948601145 43.08909135392254 H 0.0 **** 0.06
11424 H 16.38423018040436 102.28206422628567 42.47131383920632 H 0.0 **** 0.06
11425 H 18.032966565206948 101.9357045112138 43.04566324955114 H 0.0 **** 0.06
11426 C 90.01232466270356 62.31518880834915 95.27812153439993 C 0.0 **** -0.24
11427 H 89.22433334801434 62.01414074642611 95.96821181833411 H 0.0 **** 0.06
11428 H 90.00256850085785 61.65904414089549 94.40778260247521 H 0.0 **** 0.06
11429 H 90.97865697158905 62.244798273913176 95.77685179636079 H 0.0 **** 0.06
11430 H 89.84250644808728 63.344295142414694 94.95924089238999 H 0.0 **** 0.06
11431 C 68.13795516330796 88.86532150655205 27.66976927532763 C 0.0 **** -0.24
11432 H 67.8264826311971 88.48395251985352 26.697272269534665 H 0.0 **** 0.06
11433 H 69.22329801588477 88.80065985036487 27.75483800957298 H 0.0 **** 0.06
11434 H 67.67482882413016 88.27160671752529 28.457515794272872 H 0.0 **** 0.06
11435 H 67.82755441009712 89.9055206506595 27.76781503026192 H 0.0 **** 0.06
11436 C 64.99181807220734 7.000432878173797 5.853959260265015 C 0.0 **** -0.24
11437 H 65.37645358454256 6.185236612539995 5.242290754115174 H 0.0 **** 0.06
11438 H 63.93457536137471 7.150601647496217 5.634762847898685 H 0.0 **** 0.06
11439 H 65.54241669097541 7.914360684076144 5.628985848090224 H 0.0 **** 0.06
11440 H 65.11331638624682 6.752461741344462 6.90758929655027 H 0.0 **** 0.06
11441 C 82.13735440742198 73.66441224078454 50.751907823027494 C 0.0 **** -0.24
11442 H 82.51278351836139 74.27617096695556 51.57241566766615 H 0.0 **** 0.06
11443 H 81.12782995087446 73.98367880860144 50.49302929367116 H 0.0 **** 0.06
11444 H 82.12070877981876 72.61816126107898 51.057734066161316 H 0.0 **** 0.06
11445 H 82.78953906074533 73.77880978906424 49.886249560746705 H 0.0 **** 0.06
11446 C 48.61681991317471 48.76147653553347 58.86888015919027 C 0.0 **** -0.24
11447 H 49.648298832631895 48.63510758160571 58.542247467278 H 0.0 **** 0.06
11448 H 48.435138112023054 48.14220483624829 59.74759010871932 H 0.0 **** 0.06
11449 H 47.942455733420104 48.46140761308309 58.06647596812496 H 0.0 **** 0.06
11450 H 48.44046108232172 49.80724060582202 59.119580995470244 H 0.0 **** 0.06
11451 C 85.10393775211497 95.34228816549518 44.5088280486875 C 0.0 **** -0.24
11452 H 85.36189763834693 95.41549855394555 43.451867856778705 H 0.0 **** 0.06
11453 H 85.90274715780677 95.78066961721817 45.107975907309516 H 0.0 **** 0.06
11454 H 84.98027334238404 94.29368461422118 44.77924543657719 H 0.0 **** 0.06
11455 H 84.17333176765649 95.87795640808935 44.69399785440604 H 0.0 **** 0.06
11456 C 1.174983773506213 8.109274800933804 12.756464211104998 C 0.0 **** -0.24
11457 H 0.5165396175488723 8.822751282450696 13.252362877640444 H 0.0 **** 0.06
11458 H 0.6143731018129444 7.206608313863001 12.51219226469157 H 0.0 **** 0.06
11459 H 2.001500408747063 7.855450811361024 13.420232619074326 H 0.0 **** 0.06
11460 H 1.5670045009557754 8.553602629609841 11.841147635625813 H 0.0 **** 0.06
11461 C 26.14335183217335 50.4138433457976 47.06051098660424 C 0.0 **** -0.24
11462 H 26.719770478164406 51.025392215784564 46.366878986548954 H 0.0 **** 0.06
11463 H 25.434940249207955 49.80104364845039 46.50245860771162 H 0.0 **** 0.06
11464 H 25.59987069352013 51.05945029203997 47.75030500001648 H 0.0 **** 0.06
11465 H 26.818470264010273 49.76780274076299 47.62259154292431 H 0.0 **** 0.06
11466 C 106.16476973657842 7.89051553022604 32.2441057384554 C 0.0 **** -0.24
11467 H 105.63868676226235 8.650330334148094 32.82183060254695 H 0.0 **** 0.06
11468 H 106.9450753736698 8.362836686520396 31.64677858007485 H 0.0 **** 0.06
11469 H 105.46028898719635 7.381979516844908 31.58503979485502 H 0.0 **** 0.06
11470 H 106.61496432809759 7.165571231499015 32.923208470831355 H 0.0 **** 0.06
11471 C 64.50120810906265 31.664218008846575 7.439764787229649 C 0.0 **** -0.24
11472 H 64.67484769544491 31.047852107856542 8.32211293728946 H 0.0 **** 0.06
11473 H 65.12973222378702 32.55353880452069 7.488332599155328 H 0.0 **** 0.06
11474 H 63.45233741129023 31.960487003708387 7.405825832394456 H 0.0 **** 0.06
11475 H 64.74634979642444 31.094340036188797 6.543847110174752 H 0.0 **** 0.06
11476 C 102.45192026889004 79.4823893238048 4.55949402725264 C 0.0 **** -0.24
11477 H 101.65004942027053 79.28944053561065 3.847130531517621 H 0.0 **** 0.06
11478 H 102.42770749131026 78.72681103401305 5.345748522267172 H 0.0 **** 0.06
11479 H 102.31786910920354 80.47032844098987 4.998887244080777 H 0.0 **** 0.06
11480 H 103.41194003681012 79.44010506457317 4.044555221176665 H 0.0 **** 0.06
11481 C 67.1653829953654 10.722494705462381 49.79230824112158 C 0.0 **** -0.24
11482 H 66.18217338545475 10.444919010191171 49.4117277845787 H 0.0 **** 0.06
11483 H 67.6300049824153 9.855790064591076 50.263149371070654 H 0.0 **** 0.06
11484 H 67.05811615660485 11.5209458081695 50.526021051880925 H 0.0 **** 0.06
11485 H 67.79004701918603 11.06756048471226 48.96832502850172 H 0.0 **** 0.06
11486 C 49.36190384196243 92.53588346047901 10.831858785741124 C 0.0 **** -0.24
11487 H 48.41185051918512 93.01481851998207 11.064351051088856 H 0.0 **** 0.06
11488 H 49.187194078294 91.67806274908021 10.181489620417851 H 0.0 **** 0.06
11489 H 49.83586816302011 92.20167721461891 11.75493835232864 H 0.0 **** 0.06
11490 H 50.01354065317736 93.24831939628035 10.325289538818305 H 0.0 **** 0.06
11491 C 1.8673272648260308 96.26483025139254 15.083356658016555 C 0.0 **** -0.24
11492 H 2.511391470491162 95.65900476245088 15.720904028441481 H 0.0 **** 0.06
11493 H 0.8520201255439019 95.86717733028343 15.10984266643041 H 0.0 **** 0.06
11494 H 2.2409280272047454 96.23815252785073 14.059020919789532 H 0.0 **** 0.06
11495 H 1.8650772451238709 97.29410466861594 15.442558539079755 H 0.0 **** 0.06
11496 C 36.482526152454454 83.11191959991487 105.05523426907487 C 0.0 **** -0.24
11497 H 35.87355707585472 82.99395146807342 105.95171799107474 H 0.0 **** 0.06
11498 H 37.30593558392074 83.79553027680868 105.26317954312026 H 0.0 **** 0.06
11499 H 35.86819295552115 83.51674680572972 104.25068561050468 H 0.0 **** 0.06
11500 H 36.879872042287005 82.14217020007123 104.75676622570437 H 0.0 **** 0.06
11501 C 87.50635375059723 37.6143145607557 17.577037417011695 C 0.0 **** -0.24
11502 H 87.48392976097861 36.65317392987646 17.062677860651718 H 0.0 **** 0.06
11503 H 87.1934145477017 37.47888822122155 18.612676186407725 H 0.0 **** 0.06
11504 H 86.82802560011082 38.30781243485126 17.07988604325783 H 0.0 **** 0.06
11505 H 88.51874650605849 38.01530671743069 17.552892565922434 H 0.0 **** 0.06
11506 C 74.63270585623371 78.69776179718745 97.29406689517486 C 0.0 **** -0.24
11507 H 75.54135922007066 79.22160215259706 97.59145423418062 H 0.0 **** 0.06
11508 H 74.23960207476819 79.14266180373552 96.38009684648432 H 0.0 **** 0.06
11509 H 73.88910826711043 78.78108788229987 98.08742703514588 H 0.0 **** 0.06
11510 H 74.8609279444886 77.64662307099431 97.11874176590578 H 0.0 **** 0.06
11511 C 83.91946623099824 61.66071172545253 88.44756663458158 C 0.0 **** -0.24
11512 H 83.94837510879381 61.844763118948094 87.37381889791563 H 0.0 **** 0.06
11513 H 83.29560856347672 60.79055217535972 88.6499321282031 H 0.0 **** 0.06
11514 H 83.50579031494416 62.53179753030753 88.95447644866469 H 0.0 **** 0.06
11515 H 84.93115472984846 61.47565587590489 88.81042424121752 H 0.0 **** 0.06
11516 C 51.40518498343897 49.03826288684622 92.77567868442591 C 0.0 **** -0.24
11517 H 51.16526426118662 49.315579760893094 93.80309552209167 H 0.0 **** 0.06
11518 H 52.32135338097362 48.44815977567309 92.76416218032368 H 0.0 **** 0.06
11519 H 51.54552205284199 49.94062420155651 92.17982427929648 H 0.0 **** 0.06
11520 H 50.58759844428198 48.45064701802891 92.35790396807155 H 0.0 **** 0.06
11521 C 92.81526634217074 23.737164523608623 22.042835785495043 C 0.0 **** -0.24
11522 H 92.40123373749047 23.138810427447364 22.854433742091175 H 0.0 **** 0.06
11523 H 92.2139152068793 23.59509321353622 21.144660168315795 H 0.0 **** 0.06
11524 H 93.84085037725316 23.42488893528264 21.84633845805888 H 0.0 **** 0.06
11525 H 92.80333711717113 24.789955999271086 22.32585820692384 H 0.0 **** 0.06
11526 C 102.39091715544987 64.44764193624695 76.85755822010833 C 0.0 **** -0.24
11527 H 101.86033344144482 63.70888047095053 76.25531792236714 H 0.0 **** 0.06
11528 H 102.5923421142486 64.03343913116183 77.84538962164021 H 0.0 **** 0.06
11529 H 101.77613477720075 65.34270957983813 76.9566160033508 H 0.0 **** 0.06
11530 H 103.33185349996424 64.70421129123656 76.37142264645931 H 0.0 **** 0.06
11531 C 15.685023954962503 69.65828927902065 85.54232250978538 C 0.0 **** -0.24
11532 H 14.611911397012534 69.62509573646116 85.3508582810245 H 0.0 **** 0.06
11533 H 16.21872281685154 69.75423833324389 84.59641067393596 H 0.0 **** 0.06
11534 H 15.99263723250857 68.73959104826629 86.04239902959085 H 0.0 **** 0.06
11535 H 15.913573286783276 70.51352795188393 86.17790873971308 H 0.0 **** 0.06
11536 C 67.58150331468892 42.02063124918621 103.52028839366648 C 0.0 **** -0.24
11537 H 66.75640949672953 42.17148136990522 104.21640569454968 H 0.0 **** 0.06
11538 H 67.22964111873415 42.177412374048245 102.49987788181124 H 0.0 **** 0.06
11539 H 67.96106754235132 41.00403232857076 103.62119169517007 H 0.0 **** 0.06
11540 H 68.37932408244978 42.72976841051326 103.74279100453344 H 0.0 **** 0.06
11541 C 77.241330177691 54.526084998591216 46.14331422517461 C 0.0 **** -0.24
11542 H 77.40934963924084 53.83952167432824 45.3125794866552 H 0.0 **** 0.06
11543 H 76.16909802069449 54.63131858270211 46.31495647628885 H 0.0 **** 0.06
11544 H 77.66899711373335 55.49908915793381 45.902422674127855 H 0.0 **** 0.06
11545 H 77.71609783373941 54.13214104205886 47.04113304012469 H 0.0 **** 0.06
11546 C 102.45763948336881 33.08869570545035 51.67557449064475 C 0.0 **** -0.24
11547 H 102.60111710462184 33.11045040072719 50.594891923951536 H 0.0 **** 0.06
11548 H 101.80744820627308 33.91298817566978 51.971598435606325 H 0.0 **** 0.06
11549 H 103.42293455416035 33.19103468949666 52.17160375631693 H 0.0 **** 0.06
11550 H 101.99892057012437 32.14282771768205 51.96257891550039 H 0.0 **** 0.06
11551 C 26.619990995523466 31.331778883299478 24.59154855002066 C 0.0 **** -0.24
11552 H 26.674185261120755 30.500149519810066 25.29462997106032 H 0.0 **** 0.06
11553 H 25.93010287210427 31.080476075365908 23.78505105449513 H 0.0 **** 0.06
11554 H 27.609776517543864 31.522708731337843 24.176638577079128 H 0.0 **** 0.06
11555 H 26.26445231507921 32.22258772451502 25.109180376675436 H 0.0 **** 0.06
11556 C 40.883221077898526 89.02943768813543 37.94108880236509 C 0.0 **** -0.24
11557 H 40.6294039472582 90.05602946586419 38.20322234882535 H 0.0 **** 0.06
11558 H 41.39100867013781 88.55472712302281 38.7801516488705 H 0.0 **** 0.06
11559 H 41.540215869193716 89.02894195718903 37.0709707105128 H 0.0 **** 0.06
11560 H 39.97138902243067 88.47847797980091 37.707759353179256 H 0.0 **** 0.06
11561 C 51.72515445540697 98.73456695670076 18.202513703006815 C 0.0 **** -0.24
11562 H 51.22488974547151 98.77052704553645 17.23434016704728 H 0.0 **** 0.06
11563 H 51.26962107347399 97.95698815914506 18.81764420532801 H 0.0 **** 0.06
11564 H 51.62314368228434 99.69839782864065 18.700135709512693 H 0.0 **** 0.06
11565 H 52.78216104899978 98.50988229303464 18.056819607492287 H 0.0 **** 0.06
11566 C 48.98321903982317 19.41755507305595 2.4151088507629765 C 0.0 **** -0.24
11567 H 48.56457145534309 19.68408086623151 1.4446233707262195 H 0.0 **** 0.06
11568 H 48.8499318884286 20.24851765871435 3.107661065006809 H 0.0 **** 0.06
11569 H 50.045104401468585 19.201314945537945 2.305790688792854 H 0.0 **** 0.06
11570 H 48.470431349400364 18.53703206711228 2.801707952511947 H 0.0 **** 0.06
11571 C 89.02821427251624 24.466262010561877 38.01368400772992 C 0.0 **** -0.24
11572 H 88.69952646392375 24.435476095992044 36.97442828293316 H 0.0 **** 0.06
11573 H 90.10036834031517 24.27167575778293 38.061242231349695 H 0.0 **** 0.06
11574 H 88.49486438088553 23.705927473794247 38.584940682422996 H 0.0 **** 0.06
11575 H 88.81848472588702 25.45010699255016 38.43294814053911 H 0.0 **** 0.06
11576 C 86.71430002335627 22.35959545935293 95.77947612391462 C 0.0 **** -0.24
11577 H 87.5189884172667 23.033193984501622 95.48201762247321 H 0.0 **** 0.06
11578 H 86.56458382412166 22.42658478912813 96.85655286116855 H 0.0 **** 0.06
11579 H 86.97961163121884 21.337006807339662 95.51052616915317 H 0.0 **** 0.06
11580 H 85.79557506347346 22.643642343350166 95.26558536241676 H 0.0 **** 0.06
11581 C 97.26675763515927 61.425499234695465 94.31196490871461 C 0.0 **** -0.24
11582 H 96.38456898447149 60.792306451975136 94.2127127332639 H 0.0 **** 0.06
11583 H 98.00460108582172 60.92395362469448 94.93968459168985 H 0.0 **** 0.06
11584 H 96.98405455551814 62.373583837660945 94.77069301219697 H 0.0 **** 0.06
11585 H 97.69323772926896 61.61186999180853 93.32603308439428 H 0.0 **** 0.06
11586 C 100.51776645343715 107.16859380545671 108.36040763215124 C 0.0 **** -0.24
11587 H 100.67917421241314 106.11787763630593 108.59973772339362 H 0.0 **** 0.06
11588 H 99.50365474643993 107.45349839255564 108.64100644990947 H 0.0 **** 0.06
11589 H 100.65704629795232 107.32256210693757 107.29043999613344 H 0.0 **** 0.06
11590 H 101.23218589597633 107.78022850272916 108.91142915737237 H 0.0 **** 0.06
11591 C 27.65691576776996 83.6097307073154 20.89415004869221 C 0.0 **** -0.24
11592 H 27.005547043623807 82.76359391783303 21.11292889031759 H 0.0 **** 0.06
11593 H 27.063781126152577 84.4267695370709 20.4808041697639 H 0.0 **** 0.06
11594 H 28.413122322418758 83.3075627353943 20.170461603187874 H 0.0 **** 0.06
11595 H 28.14227766562368 83.94067161418442 21.81127365760716 H 0.0 **** 0.06
11596 C 84.34892734257934 71.03317682205743 84.4145669707529 C 0.0 **** -0.24
11597 H 85.01571885517178 70.33399924489261 84.91899501122344 H 0.0 **** 0.06
11598 H 83.61031102913866 70.47801717110775 83.83638398561789 H 0.0 **** 0.06
11599 H 84.9285354655132 71.67120140569283 83.74795472763287 H 0.0 **** 0.06
11600 H 83.84198734411535 71.64975183809409 85.15672864025123 H 0.0 **** 0.06
11601 C 48.9890741809771 12.582344133777614 36.07322997018392 C 0.0 **** -0.24
11602 H 49.833754250081824 12.752761279046414 35.406220669377994 H 0.0 **** 0.06
11603 H 49.228337758809175 12.961086603837309 37.06710519563944 H 0.0 **** 0.06
11604 H 48.78236536159369 11.512906660078361 36.131572944943066 H 0.0 **** 0.06
11605 H 48.11166755719859 13.101223828571023 35.68814646519633 H 0.0 **** 0.06
11606 C 35.281100515575446 13.180016625847756 35.96266382050972 C 0.0 **** -0.24
11607 H 36.248579876270796 13.1595392316067 36.46460429509483 H 0.0 **** 0.06
11608 H 35.252895033980735 12.404880294656735 35.19652283671694 H 0.0 **** 0.06
11609 H 35.13146603455026 14.155553318809709 35.499913833013295 H 0.0 **** 0.06
11610 H 34.49147394874916 12.99838853764274 36.69137292351455 H 0.0 **** 0.06
11611 C 66.44289068808374 72.79550497248073 22.484548336765073 C 0.0 **** -0.24
11612 H 66.1003339165351 73.80173123551515 22.245861585914895 H 0.0 **** 0.06
11613 H 67.24573749017578 72.84966551374816 23.22066284811359 H 0.0 **** 0.06
11614 H 66.81227409101542 72.31371251983705 21.57918001097636 H 0.0 **** 0.06
11615 H 65.61449578283799 72.21668236933556 22.891929111095294 H 0.0 **** 0.06
11616 C 70.76767889205335 57.33922401126574 50.546874590412514 C 0.0 **** -0.24
11617 H 70.76540865943751 58.00470278378788 51.40966695931672 H 0.0 **** 0.06
11618 H 69.86307436254916 56.73014662333338 50.55589160967185 H 0.0 **** 0.06
11619 H 71.64335134338245 56.690784726101356 50.59000423183512 H 0.0 **** 0.06
11620 H 70.79863945269655 57.93002225429689 49.63075025298413 H 0.0 **** 0.06
11621 C 21.137005745680767 24.26352354286854 76.52535073631321 C 0.0 **** -0.24
11622 H 21.076277048068803 23.255498231271048 76.11549973429008 H 0.0 **** 0.06
11623 H 20.13919915048257 24.70101030437877 76.56549075679351 H 0.0 **** 0.06
11624 H 21.777342072813113 24.874943006921995 75.89005516819616 H 0.0 **** 0.06
11625 H 21.556347966922914 24.22182209481423 77.53049796154967 H 0.0 **** 0.06
11626 C 47.385350572071715 56.49309851174013 20.806982211464003 C 0.0 **** -0.24
11627 H 48.377437396733264 56.4699007562956 20.35388778727281 H 0.0 **** 0.06
11628 H 46.70268219862084 55.8828543277487 20.215987480842443 H 0.0 **** 0.06
11629 H 47.02430037779937 57.52131959250681 20.834982985679176 H 0.0 **** 0.06
11630 H 47.44085113754257 56.09998746200648 21.821952278611434 H 0.0 **** 0.06
11631 C 6.024120021451978 61.27582555538163 9.734990053107722 C 0.0 **** -0.24
11632 H 5.119195058314176 61.294468837741306 9.127047507688545 H 0.0 **** 0.06
11633 H 6.35540718835864 60.24482327775078 9.861295270750901 H 0.0 **** 0.06
11634 H 5.813590047703343 61.71219141690091 10.712261209099566 H 0.0 **** 0.06
11635 H 6.80595731749753 61.85149894362729 9.240926909591053 H 0.0 **** 0.06
11636 C 19.01069184253714 43.85120246097239 105.06859486481589 C 0.0 **** -0.24
11637 H 18.686946614732328 43.96757981988867 104.034261646766 H 0.0 **** 0.06
11638 H 19.08311656225093 44.83178956354169 105.53921941428963 H 0.0 **** 0.06
11639 H 19.98574379698713 43.36404312437412 105.09220323747444 H 0.0 **** 0.06
11640 H 18.28696039617824 43.2413973360849 105.60869516073382 H 0.0 **** 0.06
11641 C 107.47149116985226 28.077561873246083 46.52234311832234 C 0.0 **** -0.24
11642 H 106.64057006835402 28.781259220385692 46.471509713295916 H 0.0 **** 0.06
11643 H 107.5512944423097 27.68306644000927 47.53506254100995 H 0.0 **** 0.06
11644 H 108.39697240519335 28.590309494334747 46.25786762537129 H 0.0 **** 0.06
11645 H 107.29690256491783 27.258904740045182 45.8252641370249 H 0.0 **** 0.06
11646 C 88.53020590451058 73.73949849215876 78.1350129924196 C 0.0 **** -0.24
11647 H 88.18646360936998 74.7144627609294 77.79080560229723 H 0.0 **** 0.06
11648 H 89.30759756284374 73.87284104520364 78.88645079473797 H 0.0 **** 0.06
11649 H 88.93265687672198 73.17906453366851 77.2904960216538 H 0.0 **** 0.06
11650 H 87.69395966039912 73.19126562591339 78.56885721121786 H 0.0 **** 0.06
11651 C 102.49078484134068 22.939943922407565 31.77329123029142 C 0.0 **** -0.24
11652 H 101.97522797507025 23.229078458086434 32.68886764993698 H 0.0 **** 0.06
11653 H 103.44171002085275 23.46984886971589 31.709817126196242 H 0.0 **** 0.06
11654 H 101.87410743066118 23.196684013500743 30.91195368877274 H 0.0 **** 0.06
11655 H 102.67251751647996 21.86551034063646 31.782431663181512 H 0.0 **** 0.06
11656 C 39.66524642406813 9.223496203406114 51.18502597174563 C 0.0 **** -0.24
11657 H 40.6478811490457 9.656528935408687 50.99722414463546 H 0.0 **** 0.06
11658 H 38.97186473495594 10.012019343052543 51.47756820123292 H 0.0 **** 0.06
11659 H 39.739547028783704 8.488178910442656 51.98630418178607 H 0.0 **** 0.06
11660 H 39.30377847554229 8.738121570927916 50.27805668436642 H 0.0 **** 0.06
11661 C 14.585924208121426 104.8740618585361 1.9234358800415237 C 0.0 **** -0.24
11662 H 13.79813280653461 104.2957516076167 2.407632011821363 H 0.0 **** 0.06
11663 H 15.333128771568198 105.15980304113208 2.6632967746157874 H 0.0 **** 0.06
11664 H 14.155674782381226 105.76945085845409 1.4755600038988348 H 0.0 **** 0.06
11665 H 15.05496126406348 104.26852207172368 1.1478595301261407 H 0.0 **** 0.06
11666 C 97.95693823941588 100.30865065720108 47.10038793964617 C 0.0 **** -0.24
11667 H 97.52652422298165 99.856916721195 46.206560162022356 H 0.0 **** 0.06
11668 H 98.52302591029824 101.19781907080296 46.82115292876989 H 0.0 **** 0.06
11669 H 98.62013016500309 99.59238242283983 47.58507766929176 H 0.0 **** 0.06
11670 H 97.15830247581695 100.5873506475715 47.787371973644895 H 0.0 **** 0.06
11671 C 73.13904714596988 59.76563787610981 96.01234278672658 C 0.0 **** -0.24
11672 H 73.52451992299515 60.38163191623249 95.20042721134713 H 0.0 **** 0.06
11673 H 73.8896264249289 59.69404867092031 96.80135086017692 H 0.0 **** 0.06
11674 H 72.91185209958041 58.768473274485025 95.63528837075792 H 0.0 **** 0.06
11675 H 72.23219278595373 60.218691136902834 96.413255232693 H 0.0 **** 0.06
11676 C 60.37584664775635 96.54942148481761 21.184727703113367 C 0.0 **** -0.24
11677 H 60.86501519634018 97.45314102342513 21.549142335298626 H 0.0 **** 0.06
11678 H 59.331657126224414 96.549533355592 21.49854314104607 H 0.0 **** 0.06
11679 H 60.87844141409634 95.67301954697767 21.594808237226573 H 0.0 **** 0.06
11680 H 60.42827285436435 96.5219920132754 20.096417098881858 H 0.0 **** 0.06
11681 C 7.05250406066142 12.061068811947536 28.545950851203344 C 0.0 **** -0.24
11682 H 8.047796536702549 11.656582512070457 28.735137737859134 H 0.0 **** 0.06
11683 H 6.547020764069657 11.44675699585818 27.800140189228813 H 0.0 **** 0.06
11684 H 7.1402685906574845 13.08330226700187 28.176984662338924 H 0.0 **** 0.06
11685 H 6.477747022153494 12.057439600461294 29.47171162139773 H 0.0 **** 0.06
11686 C 27.40245430917843 17.168383225174296 1.242885451762504 C 0.0 **** -0.24
11687 H 27.88601468020174 16.817785111483886 0.33162525503684037 H 0.0 **** 0.06
11688 H 26.32165606881857 17.18508104572527 1.0981882813957213 H 0.0 **** 0.06
11689 H 27.753695418304737 18.17456703354054 1.4762345372052437 H 0.0 **** 0.06
11690 H 27.64995481812197 16.497742298881462 2.065695943877813 H 0.0 **** 0.06
11691 C 37.65901253922908 5.9362382696423825 88.01272655318104 C 0.0 **** -0.24
11692 H 38.11093444413541 6.914957905167116 88.1800060486164 H 0.0 **** 0.06
11693 H 37.94143945640147 5.263750140570403 88.82253801336765 H 0.0 **** 0.06
11694 H 38.01072947710513 5.532433101420153 87.06326699547682 H 0.0 **** 0.06
11695 H 36.57421989303571 6.037731270904391 87.98523227411738 H 0.0 **** 0.06
11696 C 73.3205649118351 52.72011938234858 37.18697434742052 C 0.0 **** -0.24
11697 H 73.98963723441187 53.49182885843323 36.804472524811075 H 0.0 **** 0.06
11698 H 73.60969164409812 51.75255477405248 36.77458810761922 H 0.0 **** 0.06
11699 H 72.29640616333421 52.94970763497378 36.89447322058484 H 0.0 **** 0.06
11700 H 73.38968467176835 52.68627336408131 38.27432193507093 H 0.0 **** 0.06
11701 C 59.18306471943092 62.756937962492 38.29889206936235 C 0.0 **** -0.24
11702 H 60.10813408548944 63.030149347522084 37.792870341749904 H 0.0 **** 0.06
11703 H 58.64851605607308 62.01534366737276 37.703401850471266 H 0.0 **** 0.06
11704 H 58.55958281151375 63.642955037599776 38.41958559597521 H 0.0 **** 0.06
11705 H 59.41379066875547 62.33830785544113 39.27829199465111 H 0.0 **** 0.06
11706 C 100.39759216133035 92.73722405458548 21.15639166860549 C 0.0 **** -0.24
11707 H 99.69061329936673 93.45480301757797 20.740986873049373 H 0.0 **** 0.06
11708 H 100.41128406707604 91.84009808551957 20.5372895760951 H 0.0 **** 0.06
11709 H 100.09457831707773 92.47431182532597 22.170442796301288 H 0.0 **** 0.06
11710 H 101.39279135772787 93.1797129905778 21.178183742927352 H 0.0 **** 0.06
11711 C 64.316079206766 64.4426293857473 48.56316179410413 C 0.0 **** -0.24
11712 H 65.40272531994702 64.36320241771995 48.614117894643414 H 0.0 **** 0.06
11713 H 63.97064492389882 65.16935414263452 49.29916328817302 H 0.0 **** 0.06
11714 H 63.871036517858556 63.47043507035005 48.774026824389864 H 0.0 **** 0.06
11715 H 64.02257543494 64.76859716226767 47.56447390948483 H 0.0 **** 0.06
11716 C 26.650921912701335 62.57956290656719 39.16170928230014 C 0.0 **** -0.24
11717 H 25.976029983395847 63.33975241676923 38.7674419987041 H 0.0 **** 0.06
11718 H 26.351155537713908 62.320812130321215 40.17790025185519 H 0.0 **** 0.06
11719 H 27.66903607494521 62.968273670208504 39.16991533137872 H 0.0 **** 0.06
11720 H 26.60518379033931 61.69155918028616 38.53114661530634 H 0.0 **** 0.06
11721 C 39.23418822140893 49.12668237894857 1.9266132870417891 C 0.0 **** -0.24
11722 H 39.282400610121506 50.18298028058348 1.6621172205309591 H 0.0 **** 0.06
11723 H 40.24306469683155 48.714083035806055 1.9614121532811453 H 0.0 **** 0.06
11724 H 38.648027519148 48.5910540397374 1.1805317043693009 H 0.0 **** 0.06
11725 H 38.763162261917756 49.018924373435794 2.9048196728089692 H 0.0 **** 0.06
11726 C 101.78753153134016 86.26271427180959 25.73474526766998 C 0.0 **** -0.24
11727 H 101.04842900470219 87.05172122048276 25.876954266125352 H 0.0 **** 0.06
11728 H 102.42035819116579 86.19497410449823 26.62124100477834 H 0.0 **** 0.06
11729 H 102.40286946311676 86.4932002850969 24.865525358006835 H 0.0 **** 0.06
11730 H 101.27859664828563 85.31214741713 25.578806998522282 H 0.0 **** 0.06
11731 C 81.19153130327032 48.278412120369694 23.599310065915006 C 0.0 **** -0.24
11732 H 80.16902429453879 47.9494113779873 23.41517486992052 H 0.0 **** 0.06
11733 H 81.28816122470846 49.33023531741571 23.33111152217029 H 0.0 **** 0.06
11734 H 81.87838743191662 47.68463239251736 22.995989116068074 H 0.0 **** 0.06
11735 H 81.43097993415927 48.14851668894312 24.655264823558582 H 0.0 **** 0.06
11736 C 94.19867401702417 4.172410996486178 23.426833755649454 C 0.0 **** -0.24
11737 H 94.43472777023618 4.073975593474216 22.366759695432336 H 0.0 **** 0.06
11738 H 94.95082848806774 4.796997870698618 23.909173647346165 H 0.0 **** 0.06
11739 H 94.19223580413642 3.185745541905277 23.890115200687575 H 0.0 **** 0.06
11740 H 93.21681787215103 4.6326266333850015 23.538139406545895 H 0.0 **** 0.06
11741 C 68.46649594163725 84.03323148869885 54.64945503167337 C 0.0 **** -0.24
11742 H 68.49839309825313 83.38473479432831 53.77397660908139 H 0.0 **** 0.06
11743 H 67.91076350769058 84.94060780699098 54.40923298833138 H 0.0 **** 0.06
11744 H 69.48315321994686 84.29716544792986 54.94260305022664 H 0.0 **** 0.06
11745 H 67.97438343917666 83.51195693870059 55.47023878290099 H 0.0 **** 0.06
11746 C 46.05488032996709 52.35833171991722 106.191318467766 C 0.0 **** -0.24
11747 H 46.62081592007311 51.57245753915446 106.69148098164318 H 0.0 **** 0.06
11748 H 45.79213407221505 53.131284340776304 106.91263077730493 H 0.0 **** 0.06
11749 H 45.14579972499081 51.93533315476833 105.76405096201162 H 0.0 **** 0.06
11750 H 46.660633140318 52.79334769100541 105.39670694303516 H 0.0 **** 0.06
11751 C 11.726388259700684 87.36616858011007 90.27939370646959 C 0.0 **** -0.24
11752 H 10.773265181893805 86.88831487565739 90.0522811524969 H 0.0 **** 0.06
11753 H 12.484367136315996 86.6014634155116 90.44712821213454 H 0.0 **** 0.06
11754 H 11.620607997019249 87.9772616079768 91.17636793373435 H 0.0 **** 0.06
11755 H 12.024790116587667 87.9969051114092 89.44284869707934 H 0.0 **** 0.06
11756 C 45.60399191866739 50.26936644164715 4.72545945849123 C 0.0 **** -0.24
11757 H 45.8218919599901 50.96781886414942 5.5334666696297745 H 0.0 **** 0.06
11758 H 45.227893947644986 50.81832171004402 3.861748090425351 H 0.0 **** 0.06
11759 H 44.85115082265651 49.55406850193941 5.057103876683868 H 0.0 **** 0.06
11760 H 46.51420342531097 49.73713776628881 4.450067940137615 H 0.0 **** 0.06
11761 C 107.64147212187228 97.77989461723499 27.178424531267268 C 0.0 **** -0.24
11762 H 108.05498771084098 96.86808061698774 26.747458231633146 H 0.0 **** 0.06
11763 H 107.6248465390299 98.56472546995008 26.422678574912908 H 0.0 **** 0.06
11764 H 108.25958694678852 98.09626138602373 28.019128424143275 H 0.0 **** 0.06
11765 H 106.62596302468782 97.58862933944438 27.525530770547704 H 0.0 **** 0.06
11766 C 52.4749892892508 100.57713918697357 80.34033131242455 C 0.0 **** -0.24
11767 H 52.13685356337453 99.90016239820685 79.55584006353999 H 0.0 **** 0.06
11768 H 52.308133340439326 101.60755773135361 80.02757974151717 H 0.0 **** 0.06
11769 H 53.53785738996902 100.41976951599369 80.52222694894874 H 0.0 **** 0.06
11770 H 51.91673577119042 100.37981046447396 81.25620647482688 H 0.0 **** 0.06
11771 C 11.492148087617267 37.539851648896416 79.67056687966968 C 0.0 **** -0.24
11772 H 11.794498643080942 38.398478197948634 79.07150058439797 H 0.0 **** 0.06
11773 H 10.57912750726473 37.11158627492202 79.25692203986205 H 0.0 **** 0.06
11774 H 11.312368387579738 37.85859626062003 80.69667648966923 H 0.0 **** 0.06
11775 H 12.284121471582395 36.79085425795182 79.65553532140687 H 0.0 **** 0.06
11776 C 41.4404470896339 36.99541635267559 12.226633648372058 C 0.0 **** -0.24
11777 H 42.219375356954906 36.25118393134011 12.062625443181503 H 0.0 **** 0.06
11778 H 41.81033828580856 37.97831382939978 11.933734440415265 H 0.0 **** 0.06
11779 H 41.16616358974742 37.00912899443796 13.28151439658697 H 0.0 **** 0.06
11780 H 40.565312514505635 36.74298720892699 11.62738003341724 H 0.0 **** 0.06
11781 C 52.240656775604954 102.03640377396879 34.034407002443885 C 0.0 **** -0.24
11782 H 51.587714324612314 102.90791004951608 34.01336558162683 H 0.0 **** 0.06
11783 H 52.39289716950098 101.72038934684846 35.06688831224233 H 0.0 **** 0.06
11784 H 53.20097780156934 102.2909933367815 33.58674919607654 H 0.0 **** 0.06
11785 H 51.78100296144143 101.22471440144173 33.46998196186627 H 0.0 **** 0.06
11786 C 85.0898160057223 28.713200350948 96.2643549632447 C 0.0 **** -0.24
11787 H 85.60402596999572 29.671498890937244 96.33500810374343 H 0.0 **** 0.06
11788 H 84.07925925570078 28.81409130830616 96.66122518516173 H 0.0 **** 0.06
11789 H 85.63345328738544 27.9650015848477 96.84014565008209 H 0.0 **** 0.06
11790 H 85.04050537972515 28.403394526593473 95.22032302306276 H 0.0 **** 0.06
11791 C 51.49626562590141 0.4754340728032105 38.85468174909067 C 0.0 **** -0.24
11792 H 51.72296238138208 0.9491035651776656 39.81006474905084 H 0.0 **** 0.06
11793 H 51.723269850458856 1.1676446167217591 38.04397680914661 H 0.0 **** 0.06
11794 H 50.439340219183755 0.2101609239331026 38.8227173423127 H 0.0 **** 0.06
11795 H 52.09965008080598 -0.4260701675464702 38.74374836180954 H 0.0 **** 0.06
11796 C 55.29158251779713 68.40393952471788 95.68553135748591 C 0.0 **** -0.24
11797 H 56.272502639001445 67.92875869010265 95.71843731720955 H 0.0 **** 0.06
11798 H 54.59818416034607 67.85044705969699 96.31914772269565 H 0.0 **** 0.06
11799 H 54.92456097415494 68.4064113578745 94.65862970877365 H 0.0 **** 0.06
11800 H 55.37362035722168 69.43022205339753 96.04466485660349 H 0.0 **** 0.06
11801 C 26.779273744824533 96.37400185327633 48.93170685816962 C 0.0 **** -0.24
11802 H 27.747011287588244 96.53444914198116 48.45711171560597 H 0.0 **** 0.06
11803 H 26.1904197382684 95.68253934402875 48.328708981641284 H 0.0 **** 0.06
11804 H 26.25239177386125 97.32434791142632 49.01298161049028 H 0.0 **** 0.06
11805 H 26.927138972892187 95.95392098119771 49.926469537299546 H 0.0 **** 0.06
11806 C 96.17518986869572 4.212655409775536 47.754640696003214 C 0.0 **** -0.24
11807 H 95.74938768824654 4.597998845032961 46.828493960474034 H 0.0 **** 0.06
11808 H 96.44306458333233 5.0446520674245505 48.40533611357351 H 0.0 **** 0.06
11809 H 97.06526897216662 3.625009754723223 47.528124304961196 H 0.0 **** 0.06
11810 H 95.44103925530737 3.580669784798445 48.255739467112534 H 0.0 **** 0.06
11811 C 30.412042312705424 31.12993775913091 102.54161439927032 C 0.0 **** -0.24
11812 H 30.299789712324667 31.704134584237593 101.6223689565013 H 0.0 **** 0.06
11813 H 31.14728790218279 30.33876298794666 102.38820851362976 H 0.0 **** 0.06
11814 H 29.45337819502935 30.687847654117824 102.81253376131593 H 0.0 **** 0.06
11815 H 30.74849740160542 31.788001667875832 103.34273219671857 H 0.0 **** 0.06
11816 C 19.830529295718463 72.8187242617122 80.85763795710682 C 0.0 **** -0.24
11817 H 19.381559420136824 73.76340151159407 81.16323699490502 H 0.0 **** 0.06
11818 H 20.137839097496027 72.25895997589464 81.74197249709943 H 0.0 **** 0.06
11819 H 20.700281734845902 73.01533537802798 80.23169022038965 H 0.0 **** 0.06
11820 H 19.10150259490544 72.23577894418062 80.29397960770089 H 0.0 **** 0.06
11821 C 27.666317587967228 103.8943975227771 83.16357110746168 C 0.0 **** -0.24
11822 H 27.3841446318325 103.82275291408914 84.21394500903224 H 0.0 **** 0.06
11823 H 28.74815628875342 104.00418024875827 83.08476331334089 H 0.0 **** 0.06
11824 H 27.178846320246464 104.75933330248967 82.71429313315093 H 0.0 **** 0.06
11825 H 27.35408984485605 102.98914601207264 82.64179006373618 H 0.0 **** 0.06
11826 C 56.03152929346385 66.80909850425718 6.560988262993078 C 0.0 **** -0.24
11827 H 57.01912510750353 66.39082583988922 6.756242880065372 H 0.0 **** 0.06
11828 H 56.135206242715185 67.82959377436535 6.193384784979543 H 0.0 **** 0.06
11829 H 55.44999974208653 66.81154488326136 7.4825327415507275 H 0.0 **** 0.06
11830 H 55.52198204575791 66.20221130002871 5.811995987653546 H 0.0 **** 0.06
11831 C 92.78910553141695 71.83186296223963 82.07678069275676 C 0.0 **** -0.24
11832 H 93.02152549970775 72.87939956749004 82.26926938661484 H 0.0 **** 0.06
11833 H 91.78727533894164 71.60878261309348 82.44647297778937 H 0.0 **** 0.06
11834 H 93.51460138213568 71.19912581252103 82.58788080470794 H 0.0 **** 0.06
11835 H 92.83168927161401 71.6412856817553 81.00446181129956 H 0.0 **** 0.06
11836 C 28.70042199629195 67.68535796779702 30.930959760037638 C 0.0 **** -0.24
11837 H 29.460711440367135 68.13223187585669 31.571992959232432 H 0.0 **** 0.06
11838 H 27.94842765131297 68.43451959485623 30.68189298544337 H 0.0 **** 0.06
11839 H 28.22690315727739 66.85454142047521 31.453539524798316 H 0.0 **** 0.06
11840 H 29.16786055700409 67.32032855938434 30.016170926407653 H 0.0 **** 0.06
11841 C 31.03947913293152 66.03151462022109 70.21270334963631 C 0.0 **** -0.24
11842 H 31.804301234588223 65.72135548873888 69.49949341252368 H 0.0 **** 0.06
11843 H 30.297238086647752 66.64606479724532 69.70359220570656 H 0.0 **** 0.06
11844 H 31.5025207812715 66.60855994080649 71.0130107794677 H 0.0 **** 0.06
11845 H 30.555724767771125 65.14996401306479 70.63197897143702 H 0.0 **** 0.06
11846 C 73.58665057460408 87.86757796401332 12.571680713996614 C 0.0 **** -0.24
11847 H 72.61691657592056 87.38583350154056 12.446504400695744 H 0.0 **** 0.06
11848 H 74.301271499343 87.14627867784898 12.970041371634608 H 0.0 **** 0.06
11849 H 73.48958279431258 88.70420751850023 13.263423937230044 H 0.0 **** 0.06
11850 H 73.93782626886396 88.23215408162179 11.60597124120028 H 0.0 **** 0.06
11851 C 2.1627454470375937 52.0946203816554 28.399228918444663 C 0.0 **** -0.24
11852 H 2.0679877101228215 51.224100106858 27.750275702110173 H 0.0 **** 0.06
11853 H 1.4956567358948547 51.98354128572166 29.254711240538455 H 0.0 **** 0.06
11854 H 1.8940473631825085 52.99339209947999 27.843359648047425 H 0.0 **** 0.06
11855 H 3.191067868185627 52.177637752887705 28.74840636111611 H 0.0 **** 0.06
11856 C 106.63378341036187 44.48514185046992 60.26910406176721 C 0.0 **** -0.24
11857 H 105.55357106891934 44.47293428515407 60.12325432791786 H 0.0 **** 0.06
11858 H 107.12938598270865 44.23910602457795 59.32987760565008 H 0.0 **** 0.06
11859 H 106.90607757648502 43.750419617544374 61.02714628682452 H 0.0 **** 0.06
11860 H 106.94422957449869 45.47700055597842 60.59560870887931 H 0.0 **** 0.06
11861 C 31.10653885338897 15.74255853051978 109.01995530163613 C 0.0 **** -0.24
11862 H 30.028670896526734 15.901874300226702 109.02769957259767 H 0.0 **** 0.06
11863 H 31.61440216053387 16.69961457994702 108.8980394508685 H 0.0 **** 0.06
11864 H 31.371182556072768 15.082941858304675 108.1938800076259 H 0.0 **** 0.06
11865 H 31.41232427986253 15.287140580740981 109.96194343038694 H 0.0 **** 0.06
11866 C 108.58214447627626 56.540284004610086 12.494412611830697 C 0.0 **** -0.24
11867 H 108.16260277544725 56.44933443867983 13.497037602776203 H 0.0 **** 0.06
11868 H 107.84331621385631 56.98949489087459 11.831152319523596 H 0.0 **** 0.06
11869 H 108.85080934462232 55.551229650115744 12.122352707866 H 0.0 **** 0.06
11870 H 109.47153403253935 57.169284098626434 12.529880243173764 H 0.0 **** 0.06
11871 C 40.71556483492964 34.726325362739644 79.1061501378515 C 0.0 **** -0.24
11872 H 40.433325513841055 35.759742759269294 79.31211714772604 H 0.0 **** 0.06
11873 H 39.82409205739134 34.09878799734023 79.11062532329998 H 0.0 **** 0.06
11874 H 41.40792965671329 34.38017053751875 79.87341583060754 H 0.0 **** 0.06
11875 H 41.19607101666219 34.66945363679737 78.12951495968571 H 0.0 **** 0.06
11876 C 13.144547700756291 101.80129450719959 93.5698945143746 C 0.0 **** -0.24
11877 H 14.190606464687406 101.84444469519202 93.87205995323944 H 0.0 **** 0.06
11878 H 12.828120966680657 100.76029783084886 93.5009240306039 H 0.0 **** 0.06
11879 H 13.027402226394699 102.28166809630498 92.59735190555526 H 0.0 **** 0.06
11880 H 12.531619637723082 102.31960361663383 94.30721582376668 H 0.0 **** 0.06
11881 C 50.835745609150486 36.13207425597486 73.92928116044659 C 0.0 **** -0.24
11882 H 50.42293702623584 36.401871549657216 72.95764474865648 H 0.0 **** 0.06
11883 H 51.629029778763766 36.83130460232656 74.1940093650067 H 0.0 **** 0.06
11884 H 51.24317763664422 35.12187922529919 73.88383857070541 H 0.0 **** 0.06
11885 H 50.04927940494333 36.17328981666616 74.68259121001239 H 0.0 **** 0.06
11886 C 109.50080761566718 45.51758361348925 32.58427583790359 C 0.0 **** -0.24
11887 H 109.94343410803423 45.33800617036957 31.604127568055958 H 0.0 **** 0.06
11888 H 110.07182288711684 46.28591688004127 33.10580285408059 H 0.0 **** 0.06
11889 H 109.51733172401141 44.59497601226013 33.16466367590118 H 0.0 **** 0.06
11890 H 108.47053360025987 45.85073815409976 32.46038736454159 H 0.0 **** 0.06
11891 C 75.04056519777848 65.66124055226956 54.46335025797343 C 0.0 **** -0.24
11892 H 74.00662126245146 65.52049759655208 54.147419490221004 H 0.0 **** 0.06
11893 H 75.61961650838336 64.77176785413522 54.21773328532071 H 0.0 **** 0.06
11894 H 75.07181130525957 65.83074392902395 55.53978704909958 H 0.0 **** 0.06
11895 H 75.46311226228481 66.52389999314603 53.9484633602333 H 0.0 **** 0.06
11896 C 11.869875877239764 12.080481949421586 99.22758614566594 C 0.0 **** -0.24
11897 H 11.848195832563562 12.926377238527479 98.5411264192991 H 0.0 **** 0.06
11898 H 11.652675736979631 11.16264645310242 98.68007813061497 H 0.0 **** 0.06
11899 H 11.121132226118903 12.2248170298225 100.00723687027012 H 0.0 **** 0.06
11900 H 12.857540833828665 12.006524817952329 99.68265002712761 H 0.0 **** 0.06
11901 C 96.6125604741949 35.058976785596855 71.3447662793065 C 0.0 **** -0.24
11902 H 95.83014464752078 34.3144803472905 71.49767957674663 H 0.0 **** 0.06
11903 H 97.56901525408774 34.65156356059924 71.6727763329477 H 0.0 **** 0.06
11904 H 96.37941502712603 35.95341884223808 71.92315067679186 H 0.0 **** 0.06
11905 H 96.6688091881196 35.31497084895665 70.28674785559781 H 0.0 **** 0.06
11906 C 21.82909070052311 66.24080828059465 60.68516333444808 C 0.0 **** -0.24
11907 H 22.109003231126977 65.79423760399749 59.73125744284195 H 0.0 **** 0.06
11908 H 22.22278077166129 65.63292327514341 61.500046659581926 H 0.0 **** 0.06
11909 H 20.74332536702012 66.28830556053657 60.758936209540394 H 0.0 **** 0.06
11910 H 22.242315596639614 67.24721800756879 60.74965747200912 H 0.0 **** 0.06
11911 C 68.4473200829003 70.63402676381412 82.78735082524713 C 0.0 **** -0.24
11912 H 69.02879282008941 69.72736026062029 82.95413261292472 H 0.0 **** 0.06
11913 H 67.96758419951784 70.58296774534165 81.80904391627621 H 0.0 **** 0.06
11914 H 69.10806087945512 71.4997066010011 82.82312568845776 H 0.0 **** 0.06
11915 H 67.68612528829095 70.7252911344973 83.56144455756761 H 0.0 **** 0.06
11916 C 7.641717509343152 26.281163748080928 14.833851914452353 C 0.0 **** -0.24
11917 H 7.1835471077774855 27.246205704471038 14.616201292099941 H 0.0 **** 0.06
11918 H 8.570234449577356 26.435070788442488 15.382710481972286 H 0.0 **** 0.06
11919 H 7.853616445249372 25.760466482134035 13.899754443929726 H 0.0 **** 0.06
11920 H 6.958411599588885 25.682239113524645 15.436091226870637 H 0.0 **** 0.06
11921 C 4.001021296025186 69.86121167802489 107.3515900639943 C 0.0 **** -0.24
11922 H 4.36411850688296 68.83387367632906 107.32144188815187 H 0.0 **** 0.06
11923 H 3.674013746662297 70.10111903643289 108.36349638489854 H 0.0 **** 0.06
11924 H 3.162017238535384 69.96921093823914 106.66384647918936 H 0.0 **** 0.06
11925 H 4.802854310877905 70.53870028269483 107.05781314765221 H 0.0 **** 0.06
11926 C 39.39144183064495 43.91068005191609 35.352595567599536 C 0.0 **** -0.24
11927 H 40.031594447696165 44.73861349679635 35.65867356941412 H 0.0 **** 0.06
11928 H 38.707000254137796 43.66152012288103 36.16394195305034 H 0.0 **** 0.06
11929 H 40.00710908857788 43.04335518403326 35.11556975984105 H 0.0 **** 0.06
11930 H 38.81856949487107 44.20231178757777 34.47166813665966 H 0.0 **** 0.06
11931 C 63.87218388918251 37.90221353287734 45.411945785017764 C 0.0 **** -0.24
11932 H 63.54255644441446 38.57990793964373 46.19976805309156 H 0.0 **** 0.06
11933 H 64.96168337247383 37.856311943205384 45.40621558880139 H 0.0 **** 0.06
11934 H 63.517604317296104 38.265889462826294 44.448476056763866 H 0.0 **** 0.06
11935 H 63.46768503283283 36.907039180764286 45.596828317794746 H 0.0 **** 0.06
11936 C 7.114693820516768 4.105343408224087 15.907360269927338 C 0.0 **** -0.24
11937 H 6.031723606205269 4.00023460672665 15.840162559910809 H 0.0 **** 0.06
11938 H 7.5926471057287515 3.254205105849792 15.421845970076518 H 0.0 **** 0.06
11939 H 7.41210832220221 4.140716082570464 16.955098414544715 H 0.0 **** 0.06
11940 H 7.421487983634595 5.026789935684121 15.41132442637102 H 0.0 **** 0.06
11941 C 54.54158256844535 4.643982170637546 71.66028840310577 C 0.0 **** -0.24
11942 H 54.51121950470597 3.885110790405106 70.8783989104349 H 0.0 **** 0.06
11943 H 55.25057824262033 4.341396651886598 72.4318012472475 H 0.0 **** 0.06
11944 H 53.55031091198657 4.751866829372577 72.09974059719548 H 0.0 **** 0.06
11945 H 54.85512677298115 5.594696831629696 71.23133685263176 H 0.0 **** 0.06
11946 C 95.48042389729335 7.615194777235898 16.68911484588625 C 0.0 **** -0.24
11947 H 94.67347530108947 8.30249978461528 16.43404293704228 H 0.0 **** 0.06
11948 H 96.4394018078761 8.11282318774551 16.542929271456586 H 0.0 **** 0.06
11949 H 95.42408237683165 6.735986533970481 16.047809669516397 H 0.0 **** 0.06
11950 H 95.3822472960407 7.311415675689775 17.731539183124823 H 0.0 **** 0.06
11951 C 105.98426612955116 18.943366467449408 85.7144600112099 C 0.0 **** -0.24
11952 H 107.01057140102112 18.757378787834995 85.39709277668373 H 0.0 **** 0.06
11953 H 105.99015430939944 19.461144004954974 86.67474628212352 H 0.0 **** 0.06
11954 H 105.45803728918908 17.994490824319428 85.8160280168691 H 0.0 **** 0.06
11955 H 105.480977037698 19.561071323708745 84.97154103933576 H 0.0 **** 0.06
11956 C 12.333428997794385 20.156725463222187 35.34404179828929 C 0.0 **** -0.24
11957 H 12.49497299219496 21.215953378580934 35.545269646368126 H 0.0 **** 0.06
11958 H 11.50189745112948 19.794539550070056 35.94777391244393 H 0.0 **** 0.06
11959 H 13.235332984175898 19.597921519719705 35.59524938149229 H 0.0 **** 0.06
11960 H 12.103524178846499 20.01925766524704 34.28727396079723 H 0.0 **** 0.06
11961 C 82.22878323809994 7.893694321158808 57.519073857529804 C 0.0 **** -0.24
11962 H 82.85577455672183 7.927895355139727 56.62795935738234 H 0.0 **** 0.06
11963 H 82.85081511970583 7.696767115973984 58.39247233393024 H 0.0 **** 0.06
11964 H 81.49012726659507 7.098925597917244 57.41275396756811 H 0.0 **** 0.06
11965 H 81.72047636007969 8.849121735876624 57.64241628116895 H 0.0 **** 0.06
11966 C 60.98508904699746 50.98053321726263 65.57532758680864 C 0.0 **** -0.24
11967 H 61.280259827216625 52.01621918344836 65.74618921506212 H 0.0 **** 0.06
11968 H 61.49692555110238 50.598761618625076 64.69241272037539 H 0.0 **** 0.06
11969 H 59.90745584384845 50.93097440062206 65.42147560380747 H 0.0 **** 0.06
11970 H 61.25619272127312 50.37780225113022 66.44269319210684 H 0.0 **** 0.06
11971 C 9.866965600909197 106.5614395176361 31.99900712843251 C 0.0 **** -0.24
11972 H 10.144556479189788 106.95806992953021 32.97593267132689 H 0.0 **** 0.06
11973 H 8.781155529498108 106.54582159048772 31.909227441739517 H 0.0 **** 0.06
11974 H 10.255340338600234 105.54771465191507 31.895896155507273 H 0.0 **** 0.06
11975 H 10.288478133580128 107.19362677726107 31.21812540389334 H 0.0 **** 0.06
11976 C 35.770899652414215 84.25839884397226 86.04073415116254 C 0.0 **** -0.24
11977 H 36.025636020907314 85.28902954269321 85.79355483774349 H 0.0 **** 0.06
11978 H 34.896681002569665 84.24687449031188 86.6926251442124 H 0.0 **** 0.06
11979 H 36.611072485893686 83.78943954118657 86.55257849317667 H 0.0 **** 0.06
11980 H 35.54959173271442 83.70860716897886 85.12539987845635 H 0.0 **** 0.06
11981 C 44.9869634438364 44.13603481179879 54.434152554459615 C 0.0 **** -0.24
11982 H 45.22238930875115 43.67319008836931 55.393146479241665 H 0.0 **** 0.06
11983 H 44.53882338655032 45.11508474539247 54.60365647708443 H 0.0 **** 0.06
11984 H 44.28482515188791 43.50441960838461 53.8895215419962 H 0.0 **** 0.06
11985 H 45.90014944620476 44.249727331680546 53.850808615695314 H 0.0 **** 0.06
11986 C 10.692430916891368 107.95308693616681 102.60429517418481 C 0.0 **** -0.24
11987 H 10.864024608053484 107.23445882328838 103.40611381803453 H 0.0 **** 0.06
11988 H 10.291956228625253 107.43571953866342 101.73243287550028 H 0.0 **** 0.06
11989 H 11.633345522688415 108.43480831426092 102.34035004860935 H 0.0 **** 0.06
11990 H 9.978893262709505 108.70697392604552 102.93905084217666 H 0.0 **** 0.06
11991 C 108.4460831515984 36.49756493861571 63.22788580365645 C 0.0 **** -0.24
11992 H 108.33380899676963 36.683302169589524 64.29575097571109 H 0.0 **** 0.06
11993 H 109.26409337289485 35.7957766132605 63.0659590425721 H 0.0 **** 0.06
11994 H 108.66398741435286 37.43532754934523 62.71639983008487 H 0.0 **** 0.06
11995 H 107.52066099614066 36.07506273875461 62.83452888557747 H 0.0 **** 0.06
11996 C 46.553219875506365 72.26462035955907 20.72769397125697 C 0.0 **** -0.24
11997 H 47.184470389810755 72.94425996550561 21.300955432376526 H 0.0 **** 0.06
11998 H 46.969737295836644 71.25852164917985 20.77271029380202 H 0.0 **** 0.06
11999 H 46.51119662372319 72.5957404891495 19.69012066656873 H 0.0 **** 0.06
12000 H 45.547191345687736 72.26169573252744 21.148369564807126 H 0.0 **** 0.06
12001 C 29.738255223137756 102.95689255385446 58.080098727844444 C 0.0 **** -0.24
12002 H 29.20484594939208 102.18925243214903 58.64000676805847 H 0.0 **** 0.06
12003 H 29.07204522820595 103.38983198792994 57.332742964403025 H 0.0 **** 0.06
12004 H 30.60122376362459 102.51225857881417 57.58520303002851 H 0.0 **** 0.06
12005 H 30.073568687640787 103.73773895438023 58.7638301949124 H 0.0 **** 0.06
12006 C 77.87577313210471 12.024943767992113 47.940179394302646 C 0.0 **** -0.24
12007 H 77.89769533037452 11.33881818795707 48.78679853212925 H 0.0 **** 0.06
12008 H 78.70419054420222 12.729155747963567 48.02399464973156 H 0.0 **** 0.06
12009 H 76.93333796874418 12.571282173694058 47.93912976825546 H 0.0 **** 0.06
12010 H 77.97039134062081 11.460539144299364 47.01241827968026 H 0.0 **** 0.06
12011 C 36.71101571702161 28.376063517626932 86.19395099039345 C 0.0 **** -0.24
12012 H 36.98449467254567 29.364271553899528 86.56321509833417 H 0.0 **** 0.06
12013 H 36.82326426166037 27.645146852376456 86.99427649868515 H 0.0 **** 0.06
12014 H 37.36262419862347 28.10711197398402 85.36191591173161 H 0.0 **** 0.06
12015 H 35.67536062307229 28.388556330537824 85.8551792535655 H 0.0 **** 0.06
12016 C 3.974404981589089 41.484105305104265 91.36655370513341 C 0.0 **** -0.24
12017 H 4.889435935132397 41.120594930733574 91.83431585738137 H 0.0 **** 0.06
12018 H 3.1596689430557774 40.790278298198956 91.57471027123817 H 0.0 **** 0.06
12019 H 4.122189619592689 41.55793763801984 90.28910377356152 H 0.0 **** 0.06
12020 H 3.7272223000935014 42.466312426811484 91.76736996624085 H 0.0 **** 0.06
12021 C 80.39922040183485 38.94932625699356 65.78569337607139 C 0.0 **** -0.24
12022 H 80.16578006617243 39.24715654152656 64.76322938122352 H 0.0 **** 0.06
12023 H 79.53638556613565 39.14057977900052 66.42453455612613 H 0.0 **** 0.06
12024 H 81.25283122116005 39.524013240048184 66.14492908872947 H 0.0 **** 0.06
12025 H 80.6409133218357 37.88666605609435 65.808730252027 H 0.0 **** 0.06
12026 C 35.313755304359354 63.92551458263938 105.02469134906326 C 0.0 **** -0.24
12027 H 35.75203957258857 63.277455504046785 104.26576896109773 H 0.0 **** 0.06
12028 H 34.68144408635762 63.3335638245546 105.68664127292908 H 0.0 **** 0.06
12029 H 34.71276667994119 64.6954525343144 104.54128151658918 H 0.0 **** 0.06
12030 H 36.10841665567076 64.3958476084327 105.60417565834024 H 0.0 **** 0.06
12031 C 103.07507611772068 27.15884108374084 50.22267593442257 C 0.0 **** -0.24
12032 H 104.14453921177011 27.19362422416819 50.428249870773016 H 0.0 **** 0.06
12033 H 102.5609900917785 26.67036947210667 51.051097903513664 H 0.0 **** 0.06
12034 H 102.89967090809327 26.59842652020356 49.30454284072255 H 0.0 **** 0.06
12035 H 102.69451756087946 28.174209047758836 50.10657682190322 H 0.0 **** 0.06
12036 C 88.81647206918278 33.027144786180685 42.42846736126438 C 0.0 **** -0.24
12037 H 87.94505265744633 33.194920427149384 41.795888207807025 H 0.0 **** 0.06
12038 H 88.73510214861966 32.05105527961527 42.90750922969508 H 0.0 **** 0.06
12039 H 88.86672846141364 33.803365436106745 43.1916669629631 H 0.0 **** 0.06
12040 H 89.71904893194696 33.05836422572065 41.81769388071521 H 0.0 **** 0.06
12041 C 23.45956336692086 97.71957935995339 24.159972692826372 C 0.0 **** -0.24
12042 H 24.044805369166113 98.59628908995887 23.885508432825848 H 0.0 **** 0.06
12043 H 24.07601004903097 97.040250921628 24.74885912769084 H 0.0 **** 0.06
12044 H 23.119478848218918 97.2132167347201 23.257001906329144 H 0.0 **** 0.06
12045 H 22.596110828875254 98.0293197808142 24.748607930926596 H 0.0 **** 0.06
12046 C 89.75253926750042 6.330505619973366 49.39534179174818 C 0.0 **** -0.24
12047 H 89.22730666841011 5.868326990607017 48.55962564095266 H 0.0 **** 0.06
12048 H 90.03375486078238 5.563912532219348 50.1169300803541 H 0.0 **** 0.06
12049 H 89.09889112913373 7.059392442346564 49.8752678405153 H 0.0 **** 0.06
12050 H 90.64868782922875 6.83230375413001 49.02934413105295 H 0.0 **** 0.06
12051 C 64.42820813724988 56.69735071707237 64.38603653606654 C 0.0 **** -0.24
12052 H 65.2712661741163 57.01618960103656 63.77440862943082 H 0.0 **** 0.06
12053 H 64.24719436434731 55.63395207203291 64.22995581586609 H 0.0 **** 0.06
12054 H 63.540143859639926 57.26198864426374 64.10211451769474 H 0.0 **** 0.06
12055 H 64.65265589223783 56.87799927168214 65.43767250457617 H 0.0 **** 0.06
12056 C 16.48914989772228 94.09958028746016 39.29805838069382 C 0.0 **** -0.24
12057 H 16.773899468762398 94.17774564817488 38.249020392715636 H 0.0 **** 0.06
12058 H 15.927318284125661 94.98691732277469 39.589178752227156 H 0.0 **** 0.06
12059 H 17.386579039089195 94.01949266871824 39.912588151447494 H 0.0 **** 0.06
12060 H 15.869764686899057 93.21435971594732 39.44163885338969 H 0.0 **** 0.06
12061 C 86.91798891353187 100.82428097933298 76.16514759230137 C 0.0 **** -0.24
12062 H 85.897119202809 101.1950575297998 76.25525103370938 H 0.0 **** 0.06
12063 H 87.11415569053648 100.10412838007946 76.96100864254936 H 0.0 **** 0.06
12064 H 87.61576391909506 101.65772857885501 76.2484843908644 H 0.0 **** 0.06
12065 H 87.04344690753001 100.33959507085399 75.19652601288698 H 0.0 **** 0.06
12066 C 84.21155930179731 101.07010492019754 47.29341737081671 C 0.0 **** -0.24
12067 H 83.23478930697618 101.45415203685359 46.99755743368581 H 0.0 **** 0.06
12068 H 84.57368218508483 100.37648651740234 46.534618064187384 H 0.0 **** 0.06
12069 H 84.12485470076285 100.55248388420137 48.24837004136015 H 0.0 **** 0.06
12070 H 84.91230339654498 101.89916478496951 47.392054676612986 H 0.0 **** 0.06
12071 C 23.917100737488227 8.243094640836915 43.38756513554358 C 0.0 **** -0.24
12072 H 22.874146152258533 8.09152867747008 43.11232474056038 H 0.0 **** 0.06
12073 H 24.5078608550522 8.422208527853314 42.488936409321695 H 0.0 **** 0.06
12074 H 24.291009761299733 7.3556348950544646 43.898860686280756 H 0.0 **** 0.06
12075 H 23.995912181257722 9.104710519433524 44.05181793587586 H 0.0 **** 0.06
12076 C 80.60029128014259 103.84079226670963 55.67577495985972 C 0.0 **** -0.24
12077 H 80.30992409328223 103.17682498066921 54.86192965893983 H 0.0 **** 0.06
12078 H 81.68518000850804 103.95386118602141 55.68290341834904 H 0.0 **** 0.06
12079 H 80.27134489051343 103.418027743462 56.62465390605965 H 0.0 **** 0.06
12080 H 80.1347621854988 104.81624156987081 55.531937474359836 H 0.0 **** 0.06
12081 C 84.68252831074041 105.35406374157101 106.08432165200875 C 0.0 **** -0.24
12082 H 84.90880039442506 104.50120515239165 106.72412867392218 H 0.0 **** 0.06
12083 H 83.67255196402967 105.25001747958167 105.6842089681932 H 0.0 **** 0.06
12084 H 85.39686577194912 105.39073307626579 105.26104449368758 H 0.0 **** 0.06
12085 H 84.75092918677244 106.27320407847361 106.66621100926642 H 0.0 **** 0.06
12086 C 56.867849069763935 41.00019643640283 92.75255861871665 C 0.0 **** -0.24
12087 H 56.29735550650031 41.8366311202835 92.34802554412357 H 0.0 **** 0.06
12088 H 57.77620962697722 41.37352355888925 93.22525811399862 H 0.0 **** 0.06
12089 H 57.132355003629016 40.31635048838248 91.94577722726478 H 0.0 **** 0.06
12090 H 56.26358948408648 40.47323037348508 93.49233026132015 H 0.0 **** 0.06
12091 C 97.38454993026464 3.415388392424404 96.8394510741644 C 0.0 **** -0.24
12092 H 98.03130026062432 3.372638209097204 97.71585925555534 H 0.0 **** 0.06
12093 H 97.9576269309459 3.1455916092621266 95.9516304975093 H 0.0 **** 0.06
12094 H 96.99370508696138 4.426152322831797 96.72595918801238 H 0.0 **** 0.06
12095 H 96.55683205030894 2.716847410400206 96.9638114084163 H 0.0 **** 0.06
12096 C 20.833115489243596 29.983289084199157 52.55321920878168 C 0.0 **** -0.24
12097 H 20.07056952917327 30.444469463738358 51.92636665007316 H 0.0 **** 0.06
12098 H 20.962599486263514 28.94125840817793 52.26146964370395 H 0.0 **** 0.06
12099 H 20.52204537938502 30.032005746104574 53.59725416446155 H 0.0 **** 0.06
12100 H 21.7756630756449 30.51544373290244 52.42965433250672 H 0.0 **** 0.06
12101 C 57.521295268100175 105.11788519537272 108.73159974069834 C 0.0 **** -0.24
12102 H 58.22780345210563 104.29614096110718 108.8453645240065 H 0.0 **** 0.06
12103 H 57.057899394390134 105.06399988175527 107.74563950696472 H 0.0 **** 0.06
12104 H 58.04768060851897 106.06695640870527 108.8344840622881 H 0.0 **** 0.06
12105 H 56.75171805062821 105.04302933355812 109.49918056161225 H 0.0 **** 0.06
12106 C 71.88308201894921 34.73807027023116 16.729390572422357 C 0.0 **** -0.24
12107 H 72.1339254623773 34.326579175316795 17.707024197398162 H 0.0 **** 0.06
12108 H 72.30213840953047 35.74169478599504 16.63906570767255 H 0.0 **** 0.06
12109 H 70.79873416402427 34.78607250652304 16.622066511816087 H 0.0 **** 0.06
12110 H 72.297437590291 34.099337520007595 15.949252888000181 H 0.0 **** 0.06
12111 C 72.35685707701543 29.640091149668244 87.93820557615885 C 0.0 **** -0.24
12112 H 71.70615788971696 30.439596372333085 88.29329128371006 H 0.0 **** 0.06
12113 H 73.30826307737897 30.064454675450726 87.61359009723174 H 0.0 **** 0.06
12114 H 71.88248331015131 29.129137706404507 87.10066874403287 H 0.0 **** 0.06
12115 H 72.53224043811969 28.929634528556946 88.74536843200445 H 0.0 **** 0.06
12116 C 29.847954138179396 39.88952950592994 27.188341369844508 C 0.0 **** -0.24
12117 H 28.894762809388943 39.84757402555841 27.715305209088186 H 0.0 **** 0.06
12118 H 29.90071571436974 39.07411363996757 26.466741716759447 H 0.0 **** 0.06
12119 H 30.66307049573698 39.79449413153576 27.905603145692233 H 0.0 **** 0.06
12120 H 29.93252641053818 40.84231503364324 26.666858798204174 H 0.0 **** 0.06
12121 C 32.506984267069996 78.96951523164824 19.465560250129116 C 0.0 **** -0.24
12122 H 32.90417559362757 79.14765129009488 18.46714081395047 H 0.0 **** 0.06
12123 H 31.551352894780152 79.48377263842161 19.573235325408167 H 0.0 **** 0.06
12124 H 33.2093858122021 79.34708525791667 20.209205897786923 H 0.0 **** 0.06
12125 H 32.3621403041003 77.89909341443943 19.612765006421377 H 0.0 **** 0.06
12126 C 0.3904322485585965 86.2534766966715 106.53956598530868 C 0.0 **** -0.24
12127 H 0.5027816060901102 87.2553736900208 106.95363710073758 H 0.0 **** 0.06
12128 H 1.36753345148486 85.7727116349464 106.48093052402035 H 0.0 **** 0.06
12129 H -0.042593171947203246 86.32012852642328 105.54158834391495 H 0.0 **** 0.06
12130 H -0.265260999863159 85.66637279093908 107.18206127525613 H 0.0 **** 0.06
12131 C 34.6721598423444 28.277967795576387 100.83799411253506 C 0.0 **** -0.24
12132 H 33.606465848148105 28.21551922508621 101.05401785962877 H 0.0 **** 0.06
12133 H 34.81588482039774 28.532768321690668 99.78669833127248 H 0.0 **** 0.06
12134 H 35.14168609265164 27.31653297678065 101.04599664026236 H 0.0 **** 0.06
12135 H 35.1259636969487 29.046707398380136 101.46352297041446 H 0.0 **** 0.06
12136 C 59.19963100507425 12.79593062258212 30.079756532182074 C 0.0 **** -0.24
12137 H 58.364589152452595 12.157519398033685 29.78932731346201 H 0.0 **** 0.06
12138 H 58.81775106119028 13.706865402653506 30.539869953428763 H 0.0 **** 0.06
12139 H 59.78465614943377 13.051277534814176 29.196177219669607 H 0.0 **** 0.06
12140 H 59.83131266894776 12.265223267364433 30.792699646640997 H 0.0 **** 0.06
12141 C 16.573356933682092 36.90798224363516 76.81440089924008 C 0.0 **** -0.24
12142 H 15.984705368714692 36.55560257531272 75.96751143897808 H 0.0 **** 0.06
12143 H 16.095282071057536 36.59779895737569 77.7434884147946 H 0.0 **** 0.06
12144 H 16.63807662554054 37.99584477911375 76.78368685975673 H 0.0 **** 0.06
12145 H 17.575792453884635 36.48342059840144 76.76062082330246 H 0.0 **** 0.06
12146 C 103.09907471242471 88.98410230747282 22.22538186739888 C 0.0 **** -0.24
12147 H 102.13140388235851 88.57676649508966 21.93250721324449 H 0.0 **** 0.06
12148 H 103.20512413100766 89.99278287292518 21.82487599996469 H 0.0 **** 0.06
12149 H 103.89396422943912 88.3504851661962 21.832204009734227 H 0.0 **** 0.06
12150 H 103.16480533712718 89.01652629420812 23.313664971246652 H 0.0 **** 0.06
12151 C 50.48764347971221 31.920361271066774 80.30375742739756 C 0.0 **** -0.24
12152 H 50.44215942651835 30.89540566447114 80.67331273019533 H 0.0 **** 0.06
12153 H 50.14808491386445 31.94795215030902 79.26771850282233 H 0.0 **** 0.06
12154 H 51.5145839991693 32.28125684222086 80.36010825570688 H 0.0 **** 0.06
12155 H 49.84484094644405 32.55505715911576 80.9140835021492 H 0.0 **** 0.06
12156 C 89.50855586712197 83.62974219486998 6.632190724472693 C 0.0 **** -0.24
12157 H 90.42842508479958 83.85334126361985 7.171624589471492 H 0.0 **** 0.06
12158 H 89.13084169313737 82.65583947028938 6.946571771404507 H 0.0 **** 0.06
12159 H 89.71015633810356 83.61266845302737 5.56107513466236 H 0.0 **** 0.06
12160 H 88.76455642681998 84.39535588418062 6.850844207155177 H 0.0 **** 0.06
12161 C 21.057160426359292 4.829148960407878 20.927024732916443 C 0.0 **** -0.24
12162 H 21.99015973640201 4.270200660878103 20.85972750851956 H 0.0 **** 0.06
12163 H 20.241281779964414 4.222053253588939 20.533271310023157 H 0.0 **** 0.06
12164 H 21.140996781110218 5.746607835488433 20.344233555504378 H 0.0 **** 0.06
12165 H 20.85596730208193 5.077885241889277 21.96843310227558 H 0.0 **** 0.06
12166 C 15.656531762791055 86.62935992275186 60.15378630103889 C 0.0 **** -0.24
12167 H 14.795221036467655 86.18858421975932 60.65607853895345 H 0.0 **** 0.06
12168 H 15.456720299450613 87.68034395121674 59.94392006785169 H 0.0 **** 0.06
12169 H 15.84271196837901 86.09994276901273 59.219585439009705 H 0.0 **** 0.06
12170 H 16.532734714751758 86.54807266571481 60.798237780331846 H 0.0 **** 0.06
12171 C 35.13758207253011 104.91597384744576 48.603532654948246 C 0.0 **** -0.24
12172 H 35.71351207324068 104.8470581668475 49.52707810045659 H 0.0 **** 0.06
12173 H 35.405096685224805 105.83179070786657 48.07664342246484 H 0.0 **** 0.06
12174 H 34.07420299068917 104.92900318349602 48.840570584287526 H 0.0 **** 0.06
12175 H 35.35834545146315 104.05511257909555 47.972912134587986 H 0.0 **** 0.06
12176 C 16.06864845603641 5.58219039098371 37.55202895956345 C 0.0 **** -0.24
12177 H 16.390491578542505 5.679598164931278 36.5152316846318 H 0.0 **** 0.06
12178 H 16.748129788876916 6.13816540216909 38.19755180104818 H 0.0 **** 0.06
12179 H 16.074826998960805 4.529920052062378 37.836874250686726 H 0.0 **** 0.06
12180 H 15.059392720737094 5.9813870822377755 37.65754566278069 H 0.0 **** 0.06
12181 C 80.88143305327054 77.54607217736938 69.73926031382751 C 0.0 **** -0.24
12182 H 80.76808567426713 78.47689891355228 69.18381201950729 H 0.0 **** 0.06
12183 H 81.20166402025293 77.76800076984254 70.75816942840981 H 0.0 **** 0.06
12184 H 81.62869255044237 76.92076033039733 69.25107573491368 H 0.0 **** 0.06
12185 H 79.92731311578157 77.02004245128848 69.76401337048173 H 0.0 **** 0.06
12186 C 53.050269693215654 80.26764230972697 87.35032648884555 C 0.0 **** -0.24
12187 H 53.46267114373671 79.70322966123678 86.51319368287645 H 0.0 **** 0.06
12188 H 52.92400600036788 79.60500676932952 88.20668418128179 H 0.0 **** 0.06
12189 H 52.08403736977348 80.6842556486697 87.06699055043609 H 0.0 **** 0.06
12190 H 53.73279542916316 81.07596871341218 87.61315517559409 H 0.0 **** 0.06
12191 C 19.319235106124836 46.48190956680953 76.92952088188855 C 0.0 **** -0.24
12192 H 19.802878945209898 45.646212447579444 77.43527558970797 H 0.0 **** 0.06
12193 H 19.377375635663412 47.3693162653803 77.55871785181542 H 0.0 **** 0.06
12194 H 18.273986045226096 46.23597362256667 76.74198480489208 H 0.0 **** 0.06
12195 H 19.823274491235253 46.67397498808351 75.98208800358309 H 0.0 **** 0.06
12196 C 72.06437060295247 64.96567261549637 0.5470742590852922 C 0.0 **** -0.24
12197 H 72.44452468614705 63.96076394829683 0.7281992449181445 H 0.0 **** 0.06
12198 H 72.2299771910689 65.58173194311455 1.4310755269217594 H 0.0 **** 0.06
12199 H 70.99579625214541 64.91675315728732 0.33447916730551697 H 0.0 **** 0.06
12200 H 72.58444926051972 65.40258805179522 -0.3045670291439393 H 0.0 **** 0.06
12201 C 21.728640353244657 27.88090540068282 31.317026977340717 C 0.0 **** -0.24
12202 H 21.91466738645147 26.81418100502728 31.189936861573415 H 0.0 **** 0.06
12203 H 22.58667088028949 28.34273550993973 31.80676618332342 H 0.0 **** 0.06
12204 H 20.838585853764812 28.02378670889601 31.93059509203954 H 0.0 **** 0.06
12205 H 21.574795658494338 28.34193610968333 30.340709189138842 H 0.0 **** 0.06
12206 C 39.543844248859756 30.226296856229425 92.90867291016565 C 0.0 **** -0.24
12207 H 39.39286470034199 31.257981992027027 93.22729941414161 H 0.0 **** 0.06
12208 H 38.999670713632426 30.05002720420623 91.97989299966434 H 0.0 **** 0.06
12209 H 39.1753819501816 29.55040711500436 93.67955512780787 H 0.0 **** 0.06
12210 H 40.60669702524524 30.04816058816543 92.7463667467049 H 0.0 **** 0.06
12211 C 87.2109354307959 72.35881293489226 68.39879415305532 C 0.0 **** -0.24
12212 H 87.52615381137178 71.70164634215938 67.58844034425874 H 0.0 **** 0.06
12213 H 86.12515188784857 72.32595478218812 68.49049103644103 H 0.0 **** 0.06
12214 H 87.52685084161175 73.37927080720041 68.18148547827488 H 0.0 **** 0.06
12215 H 87.6654258709973 72.02858392316791 69.331943132351 H 0.0 **** 0.06
12216 C 4.857178346542426 15.664974410343106 105.39824273953374 C 0.0 **** -0.24
12217 H 4.709955432620319 15.222871004823403 104.41308801369361 H 0.0 **** 0.06
12218 H 5.912569736964329 15.89817736460381 105.5372147906786 H 0.0 **** 0.06
12219 H 4.536267572139565 14.959242064153955 106.16453119733033 H 0.0 **** 0.06
12220 H 4.268520850947567 16.57969836817354 105.47795704801041 H 0.0 **** 0.06
12221 C 91.00545615028307 17.493286960670503 98.1084449280707 C 0.0 **** -0.24
12222 H 90.92559814146068 17.835188395204852 97.07634464672344 H 0.0 **** 0.06
12223 H 90.95790397721429 16.4043702494873 98.13433080132266 H 0.0 **** 0.06
12224 H 90.18354520524709 17.90691708096199 98.69299038923535 H 0.0 **** 0.06
12225 H 91.95397157122926 17.82626265703726 98.52902608849654 H 0.0 **** 0.06
12226 C 30.78414926938683 96.46960724500039 83.15291356673472 C 0.0 **** -0.24
12227 H 31.700133830004802 97.04981689512971 83.04092733831551 H 0.0 **** 0.06
12228 H 30.698853447222177 95.761964918906 82.3283932136222 H 0.0 **** 0.06
12229 H 29.92561247581847 97.14170932737686 83.14664737838504 H 0.0 **** 0.06
12230 H 30.811231039911036 95.9265266055407 84.0970607001892 H 0.0 **** 0.06
12231 C 84.23503449906389 52.72359905696953 7.546161958852371 C 0.0 **** -0.24
12232 H 85.19737936883865 52.709091061380775 7.0326458170780075 H 0.0 **** 0.06
12233 H 83.82784419112232 53.734914444276455 7.525301752531837 H 0.0 **** 0.06
12234 H 84.372105504113 52.40762839344177 8.580700494627466 H 0.0 **** 0.06
12235 H 83.54635531959744 52.0429442245719 7.045374715717953 H 0.0 **** 0.06
12236 C 70.22144770442753 5.058007551118095 8.710036785604785 C 0.0 **** -0.24
12237 H 69.87876812667679 4.0280894201117405 8.808693784395274 H 0.0 **** 0.06
12238 H 71.29960362235533 5.098212070420331 8.869364567128017 H 0.0 **** 0.06
12239 H 69.72098638412001 5.6802653671204695 9.452124080592284 H 0.0 **** 0.06
12240 H 69.98767138726805 5.423845008587122 7.710884951952565 H 0.0 **** 0.06
12241 C 6.990015783768172 31.40311808581405 63.04036982680685 C 0.0 **** -0.24
12242 H 7.939513467523568 30.922983879595165 62.80118743954682 H 0.0 **** 0.06
12243 H 6.997119705752951 32.42628985545146 62.66558870104032 H 0.0 **** 0.06
12244 H 6.851102909918467 31.411574958116297 64.12168549919747 H 0.0 **** 0.06
12245 H 6.175227572048868 30.849353687022983 62.57367717032139 H 0.0 **** 0.06
12246 C 61.429563308321804 66.37764728607536 102.1029396471335 C 0.0 **** -0.24
12247 H 61.78418206967848 65.37568651872901 102.34565149732074 H 0.0 **** 0.06
12248 H 60.34722785071273 66.35931582613749 101.97684540671318 H 0.0 **** 0.06
12249 H 61.89851372102163 66.71354058507794 101.177343010853 H 0.0 **** 0.06
12250 H 61.6905419172229 67.06139881332591 102.91108994827921 H 0.0 **** 0.06
12251 C 106.55941178979646 22.766795392594453 21.993692960999624 C 0.0 **** -0.24
12252 H 107.31659114569987 23.190817600149327 21.333944169590694 H 0.0 **** 0.06
12253 H 106.68132476944064 23.17857499074063 22.996434074683464 H 0.0 **** 0.06
12254 H 106.67391143484807 21.683563680336764 22.028603320705855 H 0.0 **** 0.06
12255 H 105.56746106494776 23.015657690075884 21.616295039885472 H 0.0 **** 0.06
12256 C 31.1817440401704 6.587451240443329 55.46594934704012 C 0.0 **** -0.24
12257 H 30.481677043831183 7.036147112483945 56.17088486957755 H 0.0 **** 0.06
12258 H 30.815382581856852 6.729256175597925 54.449174785791854 H 0.0 **** 0.06
12259 H 31.273733357578294 5.521621870914714 55.67352476968725 H 0.0 **** 0.06
12260 H 32.157195721448375 7.063616652535245 55.57073692508288 H 0.0 **** 0.06
12261 C 97.76613399138826 17.188042004042302 16.9996708162966 C 0.0 **** -0.24
12262 H 98.56456341893035 17.65190406152098 17.57901381813386 H 0.0 **** 0.06
12263 H 96.9212174635209 17.874065402450555 16.932158824523 H 0.0 **** 0.06
12264 H 97.44790315148055 16.267774940171194 17.490314848386788 H 0.0 **** 0.06
12265 H 98.12935910842462 16.958200740113256 15.998045453878632 H 0.0 **** 0.06
12266 C 44.30992422379427 95.85272315111575 107.73447521456829 C 0.0 **** -0.24
12267 H 44.92890942782731 94.95795470205246 107.80304357855165 H 0.0 **** 0.06
12268 H 43.50954630022403 95.79787164286671 108.47144895054566 H 0.0 **** 0.06
12269 H 43.88015465597147 95.9195761295993 106.73415089402894 H 0.0 **** 0.06
12270 H 44.92219502290567 96.73390581651506 107.92605402348032 H 0.0 **** 0.06
12271 C 89.3713138107725 59.314176088789566 90.25817162062805 C 0.0 **** -0.24
12272 H 88.96203262073541 58.96883171286362 91.20716108094211 H 0.0 **** 0.06
12273 H 89.96930543109642 58.520655516608116 89.81055575472055 H 0.0 **** 0.06
12274 H 89.99790320620991 60.1895316698828 90.43017225004115 H 0.0 **** 0.06
12275 H 88.55471347337709 59.577906100633015 89.58530738146078 H 0.0 **** 0.06
12276 C 0.9518948919279637 37.48464411549668 14.449429895633898 C 0.0 **** -0.24
12277 H 1.6279081748672297 38.33263040393683 14.33660173408964 H 0.0 **** 0.06
12278 H 1.4170768827878533 36.59089317331947 14.033463746126586 H 0.0 **** 0.06
12279 H 0.020228806435397928 37.68952004711042 13.921671389255494 H 0.0 **** 0.06
12280 H 0.7430452610693123 37.32683681591428 15.507667376239283 H 0.0 **** 0.06
12281 C 70.36645827732498 98.70063777275325 8.995033224116355 C 0.0 **** -0.24
12282 H 71.36487069705268 98.3084202335885 9.190150974892163 H 0.0 **** 0.06
12283 H 69.66042427130843 97.8733416965585 8.919184193741643 H 0.0 **** 0.06
12284 H 70.37261454206408 99.26000164912332 8.060183526852484 H 0.0 **** 0.06
12285 H 70.06937741253658 99.35932070691544 9.811471614046297 H 0.0 **** 0.06
12286 C 17.483307856635605 40.26409204187439 3.4735909895852632 C 0.0 **** -0.24
12287 H 18.123644215406586 40.8225988782163 4.1551071241009065 H 0.0 **** 0.06
12288 H 16.92333532074889 40.96084853977368 2.848370151758166 H 0.0 **** 0.06
12289 H 16.788388967291638 39.65227319357223 4.048646020452404 H 0.0 **** 0.06
12290 H 18.09724400542649 39.621918165752845 2.8422915609849806 H 0.0 **** 0.06
12291 C 74.10592893021575 104.52285535291493 83.24634040864221 C 0.0 **** -0.24
12292 H 74.7516043914345 105.00860045350478 82.5150540518036 H 0.0 **** 0.06
12293 H 74.54797022372637 104.61246860233665 84.23838415661629 H 0.0 **** 0.06
12294 H 73.99508724771887 103.46929515009353 82.99034652358912 H 0.0 **** 0.06
12295 H 73.12671442048044 105.00305833557168 83.24034278080093 H 0.0 **** 0.06
12296 C 95.83469175526965 62.84222734485047 22.530260283193435 C 0.0 **** -0.24
12297 H 95.69691816380761 61.901533059935986 23.0627971668498 H 0.0 **** 0.06
12298 H 96.78205038185028 63.29268372118415 22.827079367370345 H 0.0 **** 0.06
12299 H 95.01765122560847 63.52081230350652 22.775311480158965 H 0.0 **** 0.06
12300 H 95.84246037278143 62.65418735890003 21.457197649808247 H 0.0 **** 0.06
12301 C 80.61262962698086 97.73804154265235 65.92726455970782 C 0.0 **** -0.24
12302 H 81.15816616229353 96.8910787084796 65.51046396223126 H 0.0 **** 0.06
12303 H 79.5983335867106 97.42849198407492 66.18044336460073 H 0.0 **** 0.06
12304 H 80.5749673697578 98.5424659109654 65.19345068770457 H 0.0 **** 0.06
12305 H 81.12055993708881 98.08927260760743 66.8264294440248 H 0.0 **** 0.06
12306 C 59.99376696192229 57.597854991916314 41.561296758774404 C 0.0 **** -0.24
12307 H 60.07651576446776 56.6123833815797 42.020363459817304 H 0.0 **** 0.06
12308 H 59.20552134576528 57.58314239326648 40.80839286935094 H 0.0 **** 0.06
12309 H 60.9419522616401 57.8587460609282 41.09028890988458 H 0.0 **** 0.06
12310 H 59.752552542956636 58.33627131051693 42.32638357897184 H 0.0 **** 0.06
12311 C 27.075577032637895 83.01446413265978 1.420954595188988 C 0.0 **** -0.24
12312 H 26.82680049082107 83.96163573505055 0.9420223808509434 H 0.0 **** 0.06
12313 H 27.89615064131499 82.54013444614358 0.8825809626637522 H 0.0 **** 0.06
12314 H 26.203756629202218 82.35967302716432 1.4057656934584344 H 0.0 **** 0.06
12315 H 27.37449319419602 83.19727210963279 2.453641038482047 H 0.0 **** 0.06
12316 C 32.00289295970658 54.61787462036918 92.97627623772912 C 0.0 **** -0.24
12317 H 31.305865734432246 54.15267391536216 93.67343993744372 H 0.0 **** 0.06
12318 H 32.53114974951395 55.42947974136811 93.47726903917058 H 0.0 **** 0.06
12319 H 31.452002891401065 55.0153580158983 92.12307285519388 H 0.0 **** 0.06
12320 H 32.720979001797645 53.87544505789009 92.6306947658016 H 0.0 **** 0.06
12321 C 101.204806988834 94.36590637568116 82.67689674358934 C 0.0 **** -0.24
12322 H 101.22653673062555 94.37777563420917 83.7665314498812 H 0.0 **** 0.06
12323 H 100.68947210613206 93.46834823298138 82.3340349145601 H 0.0 **** 0.06
12324 H 102.224884881944 94.36867931677472 82.29345673411501 H 0.0 **** 0.06
12325 H 100.67839367533502 95.24884146773684 82.31456194889608 H 0.0 **** 0.06
12326 C 89.29396535170801 86.50104854118385 101.71992013685758 C 0.0 **** -0.24
12327 H 88.6879433521966 86.25391197702805 102.59160914216818 H 0.0 **** 0.06
12328 H 90.16773971332326 85.850694711893 101.68898326275638 H 0.0 **** 0.06
12329 H 89.61594298768784 87.54021741149819 101.7845676837619 H 0.0 **** 0.06
12330 H 88.70290268201757 86.35891421507407 100.81439283840734 H 0.0 **** 0.06
12331 C 62.46055332438141 79.614094690826 69.96089777016431 C 0.0 **** -0.24
12332 H 61.846843273238704 80.38580098810837 70.42781353362528 H 0.0 **** 0.06
12333 H 61.883803215777306 78.69299765726885 69.87629022857072 H 0.0 **** 0.06
12334 H 63.343947210214196 79.43473874888696 70.5741567517702 H 0.0 **** 0.06
12335 H 62.766858900689755 79.9445556924735 68.96962981364126 H 0.0 **** 0.06
12336 C 5.660495244018364 107.6757756344191 17.5419386927785 C 0.0 **** -0.24
12337 H 5.289606651018801 107.09418951364466 16.698364116842583 H 0.0 **** 0.06
12338 H 5.594705786979475 108.73857811237417 17.30771756871502 H 0.0 **** 0.06
12339 H 6.698732684272244 107.4100081829954 17.737643781312585 H 0.0 **** 0.06
12340 H 5.057800499306339 107.46028966963434 18.4248717387444 H 0.0 **** 0.06
12341 C 104.46971785956691 61.589777740982186 18.362719158552608 C 0.0 **** -0.24
12342 H 104.06639224389511 60.595339712715116 18.16904580511768 H 0.0 **** 0.06
12343 H 104.3444854136462 62.210710709080715 17.47446409791564 H 0.0 **** 0.06
12344 H 105.52942568395554 61.51099066145217 18.604338197267467 H 0.0 **** 0.06
12345 H 103.93756506212151 62.04049893639596 19.199784038695054 H 0.0 **** 0.06
12346 C 100.54943039464987 98.02061884123347 8.832940749323342 C 0.0 **** -0.24
12347 H 100.16163754309463 98.72560151136884 9.568774996119771 H 0.0 **** 0.06
12348 H 101.29997484250421 98.51490437959397 8.216180100411663 H 0.0 **** 0.06
12349 H 99.7335162442432 97.6695967925843 8.201705097129349 H 0.0 **** 0.06
12350 H 101.00250350468067 97.1723688520139 9.347337134141952 H 0.0 **** 0.06
12351 C 64.7725814214106 72.03818654821794 65.22473070726483 C 0.0 **** -0.24
12352 H 64.05871939805017 71.65701623945586 64.49380655110997 H 0.0 **** 0.06
12353 H 64.7716840634389 71.39381073923334 66.10353890377624 H 0.0 **** 0.06
12354 H 64.48949774666961 73.05065782130475 65.51422762295124 H 0.0 **** 0.06
12355 H 65.76920766527024 72.05159071028584 64.78382673948045 H 0.0 **** 0.06
12356 C 31.43183521359626 5.3590709692143434 105.00166283392488 C 0.0 **** -0.24
12357 H 30.6489940275884 5.963399718780096 104.54170807739717 H 0.0 **** 0.06
12358 H 31.033264305918593 4.37353457034007 105.24402648619778 H 0.0 **** 0.06
12359 H 31.777658822334573 5.845767940928738 105.91383001883366 H 0.0 **** 0.06
12360 H 32.26464892765284 5.25397709668546 104.30670640833492 H 0.0 **** 0.06
12361 C 74.10428157235336 31.60252744764682 26.93600844161267 C 0.0 **** -0.24
12362 H 73.50317523828528 31.705217481491246 27.840161005076652 H 0.0 **** 0.06
12363 H 73.87671291857222 30.650567355821977 26.455849740996484 H 0.0 **** 0.06
12364 H 75.1615149471796 31.63515432082633 27.19815518135951 H 0.0 **** 0.06
12365 H 73.87357588039461 32.418889899122206 26.251944065410726 H 0.0 **** 0.06
12366 C 79.53132508783855 47.25237504358029 86.02362107792737 C 0.0 **** -0.24
12367 H 79.79780213449477 46.64488298682727 85.15744363780281 H 0.0 **** 0.06
12368 H 78.45209778761611 47.40765103745156 86.03897398770383 H 0.0 **** 0.06
12369 H 80.03698745843026 48.21513318774868 85.9606837308743 H 0.0 **** 0.06
12370 H 79.83788812718761 46.73837858658845 86.93425359154712 H 0.0 **** 0.06
12371 C 88.80553712636457 43.60737342645861 27.314196123818178 C 0.0 **** -0.24
12372 H 89.6548318123749 44.02653420696737 27.85278556751569 H 0.0 **** 0.06
12373 H 87.9361465145895 43.577855609102784 27.972378177464996 H 0.0 **** 0.06
12374 H 89.04659377790557 42.59600524737988 26.98624341160028 H 0.0 **** 0.06
12375 H 88.58372049933246 44.227668205788234 26.445847905184074 H 0.0 **** 0.06
12376 C 38.936108090675816 37.51328318017539 31.568981083387342 C 0.0 **** -0.24
12377 H 39.38019586592702 36.91319517390838 30.774806485148673 H 0.0 **** 0.06
12378 H 38.610488532488716 38.47146042818082 31.161606285037948 H 0.0 **** 0.06
12379 H 39.67529188244046 37.68350997089175 32.35156846553426 H 0.0 **** 0.06
12380 H 38.07897097916492 36.98611794382481 31.98730227946811 H 0.0 **** 0.06
12381 C 45.80664202676759 63.71347457604091 7.319818334415892 C 0.0 **** -0.24
12382 H 45.921354214832085 64.05021636664583 8.35030654949023 H 0.0 **** 0.06
12383 H 46.759719357081416 63.80444261832025 6.79920978725767 H 0.0 **** 0.06
12384 H 45.05800538545227 64.32593735739454 6.818542640055213 H 0.0 **** 0.06
12385 H 45.48682801515425 62.670847709801166 7.3128080967660924 H 0.0 **** 0.06
12386 C 67.0583747527146 45.43271221982593 3.2997124536470768 C 0.0 **** -0.24
12387 H 66.06516069168057 45.18836444024694 3.6761826986417176 H 0.0 **** 0.06
12388 H 67.27004228864604 46.484774752860964 3.4903721991809906 H 0.0 **** 0.06
12389 H 67.0980953616249 45.240893379765524 2.2272476796471086 H 0.0 **** 0.06
12390 H 67.80070461570716 44.8153010253116 3.806612551300246 H 0.0 **** 0.06
12391 C 40.255903845572625 24.643750636760387 87.32488556914706 C 0.0 **** -0.24
12392 H 40.928184895587044 24.947643838850876 88.12835744974342 H 0.0 **** 0.06
12393 H 40.46785863847875 23.61139329066729 87.04628666562974 H 0.0 **** 0.06
12394 H 40.40613602179288 25.292835554400046 86.46208087706663 H 0.0 **** 0.06
12395 H 39.22378367223082 24.72502072206264 87.66563031007527 H 0.0 **** 0.06
12396 C 47.59731635699597 27.636084330298402 68.6488451008293 C 0.0 **** -0.24
12397 H 46.752009376781494 28.228664248228313 68.99944606893075 H 0.0 **** 0.06
12398 H 47.57334585539803 26.65373105936966 69.12271368031361 H 0.0 **** 0.06
12399 H 48.52710478616857 28.142236954284883 68.90683118474294 H 0.0 **** 0.06
12400 H 47.5351950184002 27.519665600469764 67.567026047453 H 0.0 **** 0.06
12401 C 78.96347855000762 62.44385523029467 86.86364058919054 C 0.0 **** -0.24
12402 H 79.56946600885058 61.549948261744845 86.71725283124653 H 0.0 **** 0.06
12403 H 77.9127362807293 62.20254190852495 86.69328922705233 H 0.0 **** 0.06
12404 H 79.27764695830642 63.21521017585144 86.16104213737782 H 0.0 **** 0.06
12405 H 79.0917754996614 62.806090596463605 87.88402793393243 H 0.0 **** 0.06
12406 C 92.24009997604396 15.641168639752777 94.53834230272878 C 0.0 **** -0.24
12407 H 91.54828650376332 15.460452096040655 93.71560023074039 H 0.0 **** 0.06
12408 H 92.81975477051165 14.737539960833995 94.72971483472628 H 0.0 **** 0.06
12409 H 91.6783845711187 15.908688830412498 95.43311187923445 H 0.0 **** 0.06
12410 H 92.9137065872582 16.456332616288055 94.27346930947539 H 0.0 **** 0.06
12411 C 83.60191049605658 88.98920925795186 51.647569602002896 C 0.0 **** -0.24
12412 H 84.1416896920885 89.4452097251283 52.4772501641847 H 0.0 **** 0.06
12413 H 83.06146691805156 88.11231975780099 52.00408104285945 H 0.0 **** 0.06
12414 H 84.31043248123115 88.69041785690365 50.874942159457824 H 0.0 **** 0.06
12415 H 82.89572962419379 89.70876441959251 51.234421007238645 H 0.0 **** 0.06
12416 C 12.868403161021746 22.53319950927832 98.58815002468037 C 0.0 **** -0.24
12417 H 13.439081095053822 23.100334312867858 97.8529094768586 H 0.0 **** 0.06
12418 H 12.11601053319444 21.930106594656905 98.07912726118747 H 0.0 **** 0.06
12419 H 12.377698373183279 23.222389029883402 99.27627249767787 H 0.0 **** 0.06
12420 H 13.541012566664492 21.8813144501986 99.14536390440378 H 0.0 **** 0.06
12421 C 8.477912176501775 77.20664861037159 12.892993549852577 C 0.0 **** -0.24
12422 H 8.159884874297248 78.1997807662633 12.578293789180918 H 0.0 **** 0.06
12423 H 7.911096951100902 76.45318254621233 12.344648465485008 H 0.0 **** 0.06
12424 H 8.298287260921882 77.0891616763648 13.96125359826145 H 0.0 **** 0.06
12425 H 9.541397518760135 77.08247728908475 12.686745360814015 H 0.0 **** 0.06
12426 C 7.909242102739881 89.33300397844144 4.820489419270032 C 0.0 **** -0.24
12427 H 6.879745995532133 89.19102253740141 4.494068183537593 H 0.0 **** 0.06
12428 H 8.299155835033474 88.39296280690236 5.211794640995151 H 0.0 **** 0.06
12429 H 7.941398676488703 90.09381559820682 5.600541026236968 H 0.0 **** 0.06
12430 H 8.516936261024327 89.65489758375391 3.9739846949354387 H 0.0 **** 0.06
12431 C 62.44025716885203 18.4720774579159 56.211063903050736 C 0.0 **** -0.24
12432 H 62.0659144058757 18.071808414292608 55.268827704134154 H 0.0 **** 0.06
12433 H 62.17172341628496 19.52627647159164 56.2908762549746 H 0.0 **** 0.06
12434 H 63.52547596234999 18.37070116340912 56.241949523076286 H 0.0 **** 0.06
12435 H 61.99908466735198 17.919916459936434 57.040737277448144 H 0.0 **** 0.06
12436 C 69.73807695376212 18.53062948826397 43.31979023036379 C 0.0 **** -0.24
12437 H 69.58078062248538 17.854391892868847 44.160425985055184 H 0.0 **** 0.06
12438 H 70.46798169632183 19.290585733927003 43.59674217568448 H 0.0 **** 0.06
12439 H 68.79471424897616 19.01005354970556 43.05788900231005 H 0.0 **** 0.06
12440 H 70.10748251253273 17.965762423044225 42.46364794339192 H 0.0 **** 0.06
12441 C 72.30542683107495 83.5898849064213 69.68512977124067 C 0.0 **** -0.24
12442 H 72.74885945484152 82.61964372782342 69.4611667615572 H 0.0 **** 0.06
12443 H 71.3715904258363 83.44547566547988 70.22921013626706 H 0.0 **** 0.06
12444 H 72.10552556079216 84.12100460921059 68.75440305699618 H 0.0 **** 0.06
12445 H 72.99559654195093 84.17302602168053 70.2948281180283 H 0.0 **** 0.06
12446 C 40.42299047638153 104.77726862178508 45.346594428799165 C 0.0 **** -0.24
12447 H 39.55782731866006 104.11672561132713 45.293571018241394 H 0.0 **** 0.06
12448 H 41.27928579272145 104.29282749086227 44.87762537540104 H 0.0 **** 0.06
12449 H 40.65266782957505 104.99046140964077 46.39100433692 H 0.0 **** 0.06
12450 H 40.20161008235351 105.70853197405415 44.82535825821074 H 0.0 **** 0.06
12451 C 83.44852905822444 41.44823899503088 77.85370595193689 C 0.0 **** -0.24
12452 H 82.57342500073369 42.06526196676952 77.64713040035227 H 0.0 **** 0.06
12453 H 84.30631593877868 41.84132144632009 77.3090467364155 H 0.0 **** 0.06
12454 H 83.25359566317145 40.42391096373255 77.53741830025007 H 0.0 **** 0.06
12455 H 83.65878913798913 41.4644111876029 78.92302770581955 H 0.0 **** 0.06
12456 C 82.35190178413231 104.22749940118115 11.212021787431073 C 0.0 **** -0.24
12457 H 83.16539418892049 104.94562158355909 11.308688420826908 H 0.0 **** 0.06
12458 H 82.60878782630891 103.48750345713539 10.453632402622128 H 0.0 **** 0.06
12459 H 81.44037267352951 104.74869313654895 10.917293610968665 H 0.0 **** 0.06
12460 H 82.1918496040052 103.72892323788946 12.168476186148418 H 0.0 **** 0.06
12461 C 95.47978087274271 86.41299867470646 17.890031847707107 C 0.0 **** -0.24
12462 H 95.50780131959624 85.52173777469426 18.51644041811514 H 0.0 **** 0.06
12463 H 95.65780377653374 87.29538122837525 18.504434583826367 H 0.0 **** 0.06
12464 H 94.50223706283043 86.4916741879181 17.4145467112118 H 0.0 **** 0.06
12465 H 96.25182303802296 86.34206563061426 17.12351551543145 H 0.0 **** 0.06
12466 C 34.02756336325193 71.4430312594588 7.426848608858862 C 0.0 **** -0.24
12467 H 34.006670564064635 70.63715320056473 8.16002039943352 H 0.0 **** 0.06
12468 H 33.83446653713216 72.39331848214884 7.926364134084338 H 0.0 **** 0.06
12469 H 33.26210347226498 71.26687310754899 6.671120930880704 H 0.0 **** 0.06
12470 H 35.00733268251787 71.4757093217687 6.950074973037189 H 0.0 **** 0.06
12471 C 18.21282286240603 38.168111663168304 12.105704639823529 C 0.0 **** -0.24
12472 H 17.82335845385559 37.2463315935554 12.536903898871657 H 0.0 **** 0.06
12473 H 18.145037850868732 38.11878659992635 11.018916208075495 H 0.0 **** 0.06
12474 H 19.25507636934634 38.294854125815846 12.400363581897267 H 0.0 **** 0.06
12475 H 17.628221976479082 39.01391677634035 12.469034283644362 H 0.0 **** 0.06
12476 C 104.470143194455 77.60642445733339 31.82486843217839 C 0.0 **** -0.24
12477 H 103.57463589989007 77.70585532422274 31.211830074241277 H 0.0 **** 0.06
12478 H 105.28514377574513 77.21391708503563 31.21668023564459 H 0.0 **** 0.06
12479 H 104.27110676018484 76.92269474862678 32.65094295416827 H 0.0 **** 0.06
12480 H 104.74877462689435 78.58268848271865 32.22222842847873 H 0.0 **** 0.06
12481 C 75.9438125650129 55.8674279539826 21.761802716618973 C 0.0 **** -0.24
12482 H 76.09178497652306 56.94598318815042 21.81138711428946 H 0.0 **** 0.06
12483 H 76.91258566985545 55.367985253888605 21.72998185381337 H 0.0 **** 0.06
12484 H 75.37728243256788 55.61981325807551 20.863362121902583 H 0.0 **** 0.06
12485 H 75.39241121651315 55.53556892644991 22.641270157163945 H 0.0 **** 0.06
12486 C 32.34571907886013 98.1409900142902 13.921440148977226 C 0.0 **** -0.24
12487 H 33.126096071658 97.44929242148879 13.602223743515282 H 0.0 **** 0.06
12488 H 31.377508734578697 97.78175887413744 13.571705085383257 H 0.0 **** 0.06
12489 H 32.54069998435426 99.12671697262579 13.500124794616283 H 0.0 **** 0.06
12490 H 32.33921273533056 98.20532758561322 15.008906535338781 H 0.0 **** 0.06
12491 C 84.3904477700327 4.812377171671045 15.174613246644444 C 0.0 **** -0.24
12492 H 83.62664970729048 4.039775091545266 15.260096484824725 H 0.0 **** 0.06
12493 H 85.16614476172117 4.640526759828191 15.922400376368444 H 0.0 **** 0.06
12494 H 83.93885843773239 5.790322855733052 15.337641211045145 H 0.0 **** 0.06
12495 H 84.832152271962 4.777532683736325 14.178657994149976 H 0.0 **** 0.06
12496 C 99.48362784191352 41.08812953730197 52.00844284285149 C 0.0 **** -0.24
12497 H 100.39692464317224 41.46881486256302 51.550673770969055 H 0.0 **** 0.06
12498 H 99.59388136416834 40.02182953402857 52.2066935544247 H 0.0 **** 0.06
12499 H 98.64419150959617 41.24665033722738 51.330381831606765 H 0.0 **** 0.06
12500 H 99.29938840057747 41.615301031291324 52.94402761263575 H 0.0 **** 0.06
12501 C 25.685577863941432 63.296460149160225 79.63743123402713 C 0.0 **** -0.24
12502 H 25.2190567956265 62.747751923929 80.45558417781797 H 0.0 **** 0.06
12503 H 25.441929406877335 64.35553972519966 79.72569095908618 H 0.0 **** 0.06
12504 H 25.31296959243508 62.91575749750473 78.68599312510112 H 0.0 **** 0.06
12505 H 26.76630113815304 63.16679744227821 79.68157398026776 H 0.0 **** 0.06
12506 C 23.03788342271301 22.841945121149763 44.445349271824284 C 0.0 **** -0.24
12507 H 23.80746506662237 22.58498330239948 43.71759136482825 H 0.0 **** 0.06
12508 H 23.47796054128142 22.874861799859758 45.441744503734014 H 0.0 **** 0.06
12509 H 22.248554137010018 22.089790219468654 44.4200666481201 H 0.0 **** 0.06
12510 H 22.617777144444005 23.816962115072997 44.20039745492704 H 0.0 **** 0.06
12511 C 6.472718558970001 56.80051707942579 46.304478393373415 C 0.0 **** -0.24
12512 H 6.714684972086729 56.227313298071294 45.409001097592125 H 0.0 **** 0.06
12513 H 7.357290447451476 57.34350754580953 46.63719266420799 H 0.0 **** 0.06
12514 H 6.145835416150476 56.12092539972207 47.09194931861185 H 0.0 **** 0.06
12515 H 5.674785943922245 57.50720870294742 46.0786127120964 H 0.0 **** 0.06
12516 C 102.10158177231341 18.24984754910801 24.98855346685727 C 0.0 **** -0.24
12517 H 102.98293820471655 18.35679293331333 25.62095001146878 H 0.0 **** 0.06
12518 H 101.20324368850454 18.31114846653287 25.60388980798257 H 0.0 **** 0.06
12519 H 102.1316843370873 17.284206342113123 24.484389078043733 H 0.0 **** 0.06
12520 H 102.08814554100121 19.046840319897512 24.246303666817397 H 0.0 **** 0.06
12521 C 46.12116926966479 99.32343555003847 63.942906847741384 C 0.0 **** -0.24
12522 H 47.17411025650506 99.04247291355549 63.96504593254086 H 0.0 **** 0.06
12523 H 45.597984468433566 98.71197021688397 63.20810779652808 H 0.0 **** 0.06
12524 H 46.03216742025481 100.37516131264064 63.670707552532974 H 0.0 **** 0.06
12525 H 45.68250965761234 99.16539989898752 64.92790548589728 H 0.0 **** 0.06
12526 C 85.72936684370569 40.009666070108295 59.64247084470236 C 0.0 **** -0.24
12527 H 86.4488281744814 39.90198552757505 58.830039792150075 H 0.0 **** 0.06
12528 H 86.2231909620082 39.81252723643479 60.593725731398195 H 0.0 **** 0.06
12529 H 84.91442932429743 39.3011981355144 59.501780487758964 H 0.0 **** 0.06
12530 H 85.33193675846059 41.02546920588901 59.642985098224216 H 0.0 **** 0.06
12531 C 107.00573403089658 90.31081664110167 21.17424442567824 C 0.0 **** -0.24
12532 H 106.76443343104519 91.31664397338045 20.831639374096426 H 0.0 **** 0.06
12533 H 107.3627769531175 90.3545168295185 22.203828601193095 H 0.0 **** 0.06
12534 H 107.78141675195496 89.88601682376839 20.537250481643582 H 0.0 **** 0.06
12535 H 106.11297701890054 89.68773515096359 21.124977639464305 H 0.0 **** 0.06
12536 C 12.567218098453168 101.67725763924199 28.849638001417418 C 0.0 **** -0.24
12537 H 13.20629933348161 102.35441152457116 28.2829585036203 H 0.0 **** 0.06
12538 H 11.593308964289633 102.14220136693342 29.004764476218185 H 0.0 **** 0.06
12539 H 13.027345693730041 101.46574787076153 29.814553566721855 H 0.0 **** 0.06
12540 H 12.441695480286768 100.74656626376455 28.294560893346535 H 0.0 **** 0.06
12541 C 43.346428244415165 7.63648185101124 71.01766680761847 C 0.0 **** -0.24
12542 H 43.55133557603493 8.690715875447196 70.8283006869796 H 0.0 **** 0.06
12543 H 43.544419958881704 7.411734863402955 72.06559234117164 H 0.0 **** 0.06
12544 H 43.987919478706885 7.022756946759699 70.38617686755569 H 0.0 **** 0.06
12545 H 42.3016206213384 7.424008601828604 70.79069539651333 H 0.0 **** 0.06
12546 C 70.93943324177815 79.3184141534167 19.034577296588573 C 0.0 **** -0.24
12547 H 69.85618381568872 79.26747346883572 19.144138179957757 H 0.0 **** 0.06
12548 H 71.3673283832781 79.82868370042335 19.897650650139035 H 0.0 **** 0.06
12549 H 71.18755100103067 79.86719411244331 18.126470495798383 H 0.0 **** 0.06
12550 H 71.34551092017148 78.30852413867312 18.97216761165772 H 0.0 **** 0.06
12551 C 91.20585654593133 79.87921030179916 2.2570608814217223 C 0.0 **** -0.24
12552 H 91.86540085310921 79.2309895444208 1.6795047781074715 H 0.0 **** 0.06
12553 H 91.77805202435678 80.71791911307582 2.6540844900284384 H 0.0 **** 0.06
12554 H 90.77018978921309 79.31252715335569 3.0798758926034395 H 0.0 **** 0.06
12555 H 90.41054590477299 80.25341770254698 1.6126645332983713 H 0.0 **** 0.06
12556 C 103.16697047680569 92.13874625639144 49.50672955662416 C 0.0 **** -0.24
12557 H 103.54690654444238 91.37711884823348 48.82671405910278 H 0.0 **** 0.06
12558 H 102.24240793002899 92.55482861783653 49.10725815595025 H 0.0 **** 0.06
12559 H 103.90720333547841 92.93278166733768 49.611648625172606 H 0.0 **** 0.06
12560 H 102.97350560541949 91.69126439337602 50.4819275968956 H 0.0 **** 0.06
12561 C 83.32431928008867 84.82386263975559 90.9155225650131 C 0.0 **** -0.24
12562 H 84.28424771359005 84.32575003734337 90.77357122903737 H 0.0 **** 0.06
12563 H 82.7515178714014 84.29694961412395 91.6795468714351 H 0.0 **** 0.06
12564 H 82.77061721865812 84.81759740424923 89.9766516274556 H 0.0 **** 0.06
12565 H 83.49314257482095 85.85271935746192 91.232464804323 H 0.0 **** 0.06
12566 C 85.90496157122959 26.067433035831353 61.23186232908978 C 0.0 **** -0.24
12567 H 85.56907330485632 25.103933319174402 61.6139790461266 H 0.0 **** 0.06
12568 H 86.93593681628786 26.240928131536055 61.540905011828556 H 0.0 **** 0.06
12569 H 85.26839989206991 26.85815216110466 61.62760631865163 H 0.0 **** 0.06
12570 H 85.84693133873219 26.06576854180452 60.14299611629396 H 0.0 **** 0.06
12571 C 97.2224553567261 96.97100044229134 79.59601426531617 C 0.0 **** -0.24
12572 H 97.56466435987565 97.36800752013524 78.63951370777939 H 0.0 **** 0.06
12573 H 97.69459594389932 97.524952783177 80.40807583247789 H 0.0 **** 0.06
12574 H 97.49154421736579 95.91747121768692 79.66906356257168 H 0.0 **** 0.06
12575 H 96.1395958686493 97.0754591636724 79.66537980514134 H 0.0 **** 0.06
12576 C 95.63298049989083 0.673836182641125 41.27463759867405 C 0.0 **** -0.24
12577 H 95.88320967095723 -0.22394738235215073 40.70917326783699 H 0.0 **** 0.06
12578 H 95.52400910114639 0.4208456628783921 42.32946550701577 H 0.0 **** 0.06
12579 H 94.69614661639449 1.0888600576005416 40.90111064275695 H 0.0 **** 0.06
12580 H 96.42811883607278 1.4099927217640982 41.157175124026054 H 0.0 **** 0.06
12581 C 103.9883721469051 5.025884038962081 23.79605988306895 C 0.0 **** -0.24
12582 H 104.56088304854661 4.326246609925791 24.404798402400445 H 0.0 **** 0.06
12583 H 104.52582641301981 5.971161348775311 23.72527465334622 H 0.0 **** 0.06
12584 H 103.01483745630397 5.194989946152392 24.256427422874125 H 0.0 **** 0.06
12585 H 103.85019788525251 4.60974209753053 22.797840142044066 H 0.0 **** 0.06
12586 C 1.827228476389351 12.15498833304099 75.34219010773747 C 0.0 **** -0.24
12587 H 2.298180600398041 11.466576098411366 76.04476652052215 H 0.0 **** 0.06
12588 H 2.3927780061455763 12.166430791017945 74.41104693480655 H 0.0 **** 0.06
12589 H 1.8121108461883892 13.156588954375025 75.7716682854135 H 0.0 **** 0.06
12590 H 0.8067207055573107 11.829149087089547 75.14470981847253 H 0.0 **** 0.06
12591 C 59.59911962916351 85.50861363953078 61.94527135740313 C 0.0 **** -0.24
12592 H 59.86384156450555 85.14477793351278 60.952574158169966 H 0.0 **** 0.06
12593 H 58.758467390173706 86.19832955158392 61.866896239607854 H 0.0 **** 0.06
12594 H 60.453579850757535 86.02484698796107 62.38319228229483 H 0.0 **** 0.06
12595 H 59.32058971121745 84.66650008506531 62.57842274953961 H 0.0 **** 0.06
12596 C 87.43278590100209 63.419053796424635 4.8497567661942185 C 0.0 **** -0.24
12597 H 87.47403086856212 64.50736500400633 4.797083520686357 H 0.0 **** 0.06
12598 H 87.13654777836982 63.115312097761006 5.853905574806873 H 0.0 **** 0.06
12599 H 88.41645959594953 63.007688492058634 4.620716222531428 H 0.0 **** 0.06
12600 H 86.70599342360754 63.047351871806924 4.1268990502358065 H 0.0 **** 0.06
12601 C 85.38611057713487 1.203381758834019 37.42767829919907 C 0.0 **** -0.24
12602 H 85.90597336048178 2.129065966552737 37.67650825134422 H 0.0 **** 0.06
12603 H 84.46839099288641 1.133942713284016 38.01170470933232 H 0.0 **** 0.06
12604 H 86.02879692135124 0.35269823718410453 37.65864316431228 H 0.0 **** 0.06
12605 H 85.14311494647755 1.1977167870078098 36.365132350105654 H 0.0 **** 0.06
12606 C 70.50536123850492 20.728399876008183 15.214331707628503 C 0.0 **** -0.24
12607 H 70.2571401167043 20.565037605017693 16.263227758404895 H 0.0 **** 0.06
12608 H 69.7414612870117 21.35620622854435 14.75437304882982 H 0.0 **** 0.06
12609 H 70.54741750556565 19.769706575163184 14.697255025736183 H 0.0 **** 0.06
12610 H 71.47416554783422 21.22214331975141 15.142865253469296 H 0.0 **** 0.06
12611 C 98.8352406381361 84.16130841121148 98.5171364062137 C 0.0 **** -0.24
12612 H 97.9925193680727 84.01576376468738 97.8410509843988 H 0.0 **** 0.06
12613 H 99.20251162707133 83.191690773085 98.85472426871348 H 0.0 **** 0.06
12614 H 98.51373231691645 84.74836982130763 99.37638263100791 H 0.0 **** 0.06
12615 H 99.63319555340102 84.68978931158507 97.99418246564346 H 0.0 **** 0.06
12616 C 102.27774122628287 104.69564041096503 89.34735596908465 C 0.0 **** -0.24
12617 H 102.43465918054763 104.09388121789256 90.24258582562918 H 0.0 **** 0.06
12618 H 103.1312013558285 105.357992551879 89.20126240610242 H 0.0 **** 0.06
12619 H 101.37177729915713 105.28979829322847 89.46442691835618 H 0.0 **** 0.06
12620 H 102.173393016763 104.04004054467846 88.48227783546929 H 0.0 **** 0.06
12621 C 24.33364494488464 47.29443561049351 94.76761008268097 C 0.0 **** -0.24
12622 H 24.052406900882417 47.49441187544846 93.73318677974896 H 0.0 **** 0.06
12623 H 23.815228352917927 47.99207147186013 95.42568175478237 H 0.0 **** 0.06
12624 H 25.410847260736148 47.41913516332079 94.88150957561689 H 0.0 **** 0.06
12625 H 24.056878381466447 46.27363711519911 95.02861295199361 H 0.0 **** 0.06
12626 C 96.31023696660588 87.20324742543573 10.215079575908476 C 0.0 **** -0.24
12627 H 95.29775000103189 86.97553793671233 10.546351863103467 H 0.0 **** 0.06
12628 H 96.8035913262608 86.28412960992682 9.897073538421097 H 0.0 **** 0.06
12629 H 96.86912774857547 87.65074671662569 11.036681254838982 H 0.0 **** 0.06
12630 H 96.27091167733624 87.9021193492564 9.379434060488421 H 0.0 **** 0.06
12631 C 95.7785354193328 67.58518931863802 38.90927652105643 C 0.0 **** -0.24
12632 H 94.96710234047316 66.90104127606031 39.155702236790006 H 0.0 **** 0.06
12633 H 96.1372554091177 68.06605964520327 39.81987610984484 H 0.0 **** 0.06
12634 H 95.41600966920294 68.34385450958783 38.21646051601812 H 0.0 **** 0.06
12635 H 96.59377425853776 67.02980184370091 38.44506722157294 H 0.0 **** 0.06
12636 C 55.53177835520506 83.92820117472775 84.15850653071351 C 0.0 **** -0.24
12637 H 55.96918863639007 82.9316375468402 84.21565569082182 H 0.0 **** 0.06
12638 H 56.0666387759008 84.51746483231102 83.41324042616503 H 0.0 **** 0.06
12639 H 55.609883057392096 84.41497147559949 85.13070260064222 H 0.0 **** 0.06
12640 H 54.48305175548751 83.84925754337132 83.87449206429218 H 0.0 **** 0.06
12641 C 81.09110315764508 12.065603730145373 59.49498005766468 C 0.0 **** -0.24
12642 H 80.7688846229313 13.100296866688534 59.61349254694551 H 0.0 **** 0.06
12643 H 81.56464378047863 11.7256904061216 60.41598823939103 H 0.0 **** 0.06
12644 H 81.80433355156242 11.99946189845506 58.674002910748364 H 0.0 **** 0.06
12645 H 80.22685379675679 11.43908883688561 59.27706967216528 H 0.0 **** 0.06
12646 C 73.14176047385004 91.82148096378961 95.29665130406941 C 0.0 **** -0.24
12647 H 72.1501074328093 91.51449929749221 94.96512402402446 H 0.0 **** 0.06
12648 H 73.1990137404074 91.75482916613082 96.38354573873315 H 0.0 **** 0.06
12649 H 73.32597975389876 92.8500009058397 94.98546185200765 H 0.0 **** 0.06
12650 H 73.89167503821545 91.16779476924211 94.85177453091575 H 0.0 **** 0.06
12651 C 80.93989045106197 76.719995392775 89.26239929303283 C 0.0 **** -0.24
12652 H 81.9117898086131 76.37300364489587 88.91127362056832 H 0.0 **** 0.06
12653 H 80.99355282783387 76.93178850080172 90.33017824085296 H 0.0 **** 0.06
12654 H 80.19203594127966 75.94668258827677 89.08208044565411 H 0.0 **** 0.06
12655 H 80.66126841008068 77.62611191909625 88.7245066852106 H 0.0 **** 0.06
12656 C 63.43581069643028 108.58127825892277 66.24119857942276 C 0.0 **** -0.24
12657 H 63.53694733369082 107.76936262363897 65.52145681081834 H 0.0 **** 0.06
12658 H 64.0506185442967 109.42499695695739 65.92749977520555 H 0.0 **** 0.06
12659 H 63.76220301544208 108.2391947822633 67.22287254236971 H 0.0 **** 0.06
12660 H 62.3919052970989 108.89214655795578 66.29444645495028 H 0.0 **** 0.06
12661 C 41.113797149846846 105.44582698588327 9.94818617230942 C 0.0 **** -0.24
12662 H 41.73766052294724 104.62722158458782 10.307829856832214 H 0.0 **** 0.06
12663 H 40.23647516046708 105.54254815866905 10.589314945435405 H 0.0 **** 0.06
12664 H 40.79770725980802 105.23941736994986 8.926016872337115 H 0.0 **** 0.06
12665 H 41.68568663392932 106.3739654407939 9.971452806898938 H 0.0 **** 0.06
12666 C 48.72427428613508 68.35125254118716 52.087378518794196 C 0.0 **** -0.24
12667 H 49.22646712529654 68.65210513274201 51.166987287107986 H 0.0 **** 0.06
12668 H 47.67228474916422 68.15600432783631 51.87992008981769 H 0.0 **** 0.06
12669 H 48.807875224647496 69.15006205931047 52.8232474100856 H 0.0 **** 0.06
12670 H 49.192384016930234 67.44741684265983 52.476909207376536 H 0.0 **** 0.06
12671 C 39.22560267488575 66.3466411662497 85.16189541100164 C 0.0 **** -0.24
12672 H 39.79087338238891 66.56829641716564 86.06649575584814 H 0.0 **** 0.06
12673 H 39.851634064691126 66.5304959538012 84.28835032692939 H 0.0 **** 0.06
12674 H 38.34311464316937 66.9843920172487 85.11846092761903 H 0.0 **** 0.06
12675 H 38.91779060445472 65.30074078636699 85.17410290006458 H 0.0 **** 0.06
12676 C 67.3065943259947 81.28043758274447 26.903475023688543 C 0.0 **** -0.24
12677 H 66.54798085567273 81.91269533467835 27.36507724629604 H 0.0 **** 0.06
12678 H 66.84934577290642 80.68153427320482 26.115003390362403 H 0.0 **** 0.06
12679 H 67.73804443446443 80.62161261813827 27.656288596258435 H 0.0 **** 0.06
12680 H 68.09024665261984 81.90633886596754 26.475731509529567 H 0.0 **** 0.06
12681 C 80.10808970993372 95.84471072984411 46.75126114455833 C 0.0 **** -0.24
12682 H 79.80687726409144 95.43167977144128 45.78868837241322 H 0.0 **** 0.06
12683 H 81.1965056793957 95.88570132182633 46.80442470642646 H 0.0 **** 0.06
12684 H 79.72844314025986 95.21182416540137 47.55378713968224 H 0.0 **** 0.06
12685 H 79.70102905040409 96.8506475540662 46.857287676369026 H 0.0 **** 0.06
12686 C 87.01365690703523 33.41052437354659 24.544737988331406 C 0.0 **** -0.24
12687 H 88.03523781747214 33.610550591096455 24.86735199918175 H 0.0 **** 0.06
12688 H 86.32884472818179 34.06587345155347 25.08383888557148 H 0.0 **** 0.06
12689 H 86.76368187277728 32.37102492022643 24.753319280269665 H 0.0 **** 0.06
12690 H 86.927962897534 33.59738926392089 23.4739130942868 H 0.0 **** 0.06
12691 C 68.08012649535196 59.686401420183444 9.115919251342035 C 0.0 **** -0.24
12692 H 68.02154721169742 59.3183787529442 10.140421406441988 H 0.0 **** 0.06
12693 H 69.12090662710911 59.88952461576494 8.862554738246217 H 0.0 **** 0.06
12694 H 67.49805372436047 60.603087594166325 9.025993911454108 H 0.0 **** 0.06
12695 H 67.68080225101164 58.93377952260943 8.436336826508892 H 0.0 **** 0.06
12696 C 44.80565033539335 82.31799358501314 8.763671665504873 C 0.0 **** -0.24
12697 H 45.622813161467036 81.85422385871294 8.2116540995288 H 0.0 **** 0.06
12698 H 43.8968247670627 81.73127956591907 8.627085990354203 H 0.0 **** 0.06
12699 H 44.64520142771704 83.32986200737804 8.391387751207972 H 0.0 **** 0.06
12700 H 45.057963366623085 82.3561622895362 9.822377026892553 H 0.0 **** 0.06
12701 C 99.48161598554218 33.15053438159552 42.30645435634986 C 0.0 **** -0.24
12702 H 99.68953237426904 32.26985236654966 42.91503375242377 H 0.0 **** 0.06
12703 H 99.57494454459263 34.046621169673756 42.91954006369005 H 0.0 **** 0.06
12704 H 98.46806203224966 33.08494625916023 41.909205681623746 H 0.0 **** 0.06
12705 H 100.19276189851401 33.19818771440126 41.48154131098454 H 0.0 **** 0.06
12706 C 87.32351073620657 95.98321963422593 72.65394065967472 C 0.0 **** -0.24
12707 H 87.47004718812684 96.45294618340827 71.6804834282253 H 0.0 **** 0.06
12708 H 87.03546365885569 96.74150071004567 73.38234341631983 H 0.0 **** 0.06
12709 H 88.25156977836889 95.50861034561244 72.97155247806245 H 0.0 **** 0.06
12710 H 86.53668457862437 95.232625587834 72.57913399136187 H 0.0 **** 0.06
12711 C 11.227562981925075 93.25814950758704 63.51967668773591 C 0.0 **** -0.24
12712 H 10.973509823889174 93.1575480783753 62.46492213690222 H 0.0 **** 0.06
12713 H 11.733671456622119 94.21010542494236 63.68210217390872 H 0.0 **** 0.06
12714 H 11.885739405703362 92.44069137663718 63.81506607771021 H 0.0 **** 0.06
12715 H 10.316189879464616 93.22475684462552 64.11781791703903 H 0.0 **** 0.06
12716 C 84.97915957268685 4.963637805994665 67.31880776424882 C 0.0 **** -0.24
12717 H 85.10686650009285 4.408960446900494 66.38869923313149 H 0.0 **** 0.06
12718 H 84.27509116130011 4.435043479352913 67.96235467896884 H 0.0 **** 0.06
12719 H 84.59316986913905 5.95837472418458 67.09677339723285 H 0.0 **** 0.06
12720 H 85.94063634677758 5.051373841924487 67.82464732337291 H 0.0 **** 0.06
12721 C 104.3633763857051 80.67000094490066 72.8016298948109 C 0.0 **** -0.24
12722 H 103.76190638860967 81.27364645182604 73.4815996207735 H 0.0 **** 0.06
12723 H 104.34181803763676 79.6287244217445 73.12428038539406 H 0.0 **** 0.06
12724 H 105.39202944096738 81.03135191819848 72.80892795271447 H 0.0 **** 0.06
12725 H 103.9588168923396 80.74641270943766 71.79263252308351 H 0.0 **** 0.06
12726 C 86.55027613454939 90.18358890092702 33.32941947670864 C 0.0 **** -0.24
12727 H 86.00674651260522 89.6506782540406 34.10994858100787 H 0.0 **** 0.06
12728 H 85.93670576000511 91.00210625541251 32.95372601978946 H 0.0 **** 0.06
12729 H 86.7800019507485 89.49745470181625 32.5146939184184 H 0.0 **** 0.06
12730 H 87.47747501554068 90.58270158221967 33.74029312073279 H 0.0 **** 0.06
12731 C 16.870801309051927 56.827777608964894 8.10079877032598 C 0.0 **** -0.24
12732 H 16.67809619765029 56.81935164082278 9.17417506403092 H 0.0 **** 0.06
12733 H 16.080587940236626 57.38308997610068 7.59500345944582 H 0.0 **** 0.06
12734 H 16.89302772426302 55.80356487488309 7.728274765823528 H 0.0 **** 0.06
12735 H 17.831766525305483 57.30462138493877 7.908690176479354 H 0.0 **** 0.06
12736 C 70.76968557232405 67.99900885733291 71.7565676346559 C 0.0 **** -0.24
12737 H 69.7346159373119 68.23815260409901 71.51367680474101 H 0.0 **** 0.06
12738 H 70.82372145350098 67.61747328822815 72.77608251259795 H 0.0 **** 0.06
12739 H 71.38023719273798 68.89806520930443 71.67156605849775 H 0.0 **** 0.06
12740 H 71.14016770574534 67.24234432770021 71.06494516278688 H 0.0 **** 0.06
12741 C 52.46397872253641 98.19755442243176 51.50467143677645 C 0.0 **** -0.24
12742 H 52.854114558258175 98.9422489723093 52.19799018663525 H 0.0 **** 0.06
12743 H 51.37937332126114 98.14207379832919 51.60470620153205 H 0.0 **** 0.06
12744 H 52.9004376758755 97.22583937157337 51.732129617828946 H 0.0 **** 0.06
12745 H 52.72107282158366 98.4820936238657 50.483940339720846 H 0.0 **** 0.06
12746 C 13.466640201184148 108.02753492154963 73.77073727463772 C 0.0 **** -0.24
12747 H 13.882417228389613 109.02309853611274 73.92495595506382 H 0.0 **** 0.06
12748 H 12.390619864248308 108.10400532525446 73.61148143915078 H 0.0 **** 0.06
12749 H 13.662188861300933 107.41245615777143 74.64826255937383 H 0.0 **** 0.06
12750 H 13.931692252628892 107.57197720227387 72.89729033951005 H 0.0 **** 0.06
12751 C 87.00922675308648 35.525333135682104 92.61417159375526 C 0.0 **** -0.24
12752 H 87.76779181549222 35.01919705811815 93.21122282987574 H 0.0 **** 0.06
12753 H 86.70444616876765 36.4443220856175 93.11709115043931 H 0.0 **** 0.06
12754 H 86.14549456497063 34.87139202388565 92.49590253222115 H 0.0 **** 0.06
12755 H 87.42047441701706 35.76715602016998 91.63413439371527 H 0.0 **** 0.06
12756 C 93.4307058799117 23.162698706318423 30.606139483414154 C 0.0 **** -0.24
12757 H 93.54265957376651 24.237643816882553 30.465174120319546 H 0.0 **** 0.06
12758 H 92.40251468689242 22.93902026536867 30.89282529255653 H 0.0 **** 0.06
12759 H 94.10850261141617 22.82705909169715 31.3912066891847 H 0.0 **** 0.06
12760 H 93.66817512710627 22.6472835626073 29.67524557182147 H 0.0 **** 0.06
12761 C 14.22145211992914 93.14504287337991 16.873382295426808 C 0.0 **** -0.24
12762 H 13.541867829583367 93.46887319765372 17.66214525960399 H 0.0 **** 0.06
12763 H 14.964340587838194 93.9221685842586 16.69237334447284 H 0.0 **** 0.06
12764 H 13.65672427718917 92.96158561897482 15.959518660159986 H 0.0 **** 0.06
12765 H 14.723090206145343 92.22743127188136 17.18046214664045 H 0.0 **** 0.06
12766 C 92.53750200068924 82.3522942017802 51.77072279080454 C 0.0 **** -0.24
12767 H 91.5073834881945 82.70815874803215 51.77611944879823 H 0.0 **** 0.06
12768 H 92.97877152221781 82.53505339349876 50.789712969587356 H 0.0 **** 0.06
12769 H 92.55428935445323 81.28367303001686 51.98432013904187 H 0.0 **** 0.06
12770 H 93.10982783296447 82.88401547042646 52.53101846287842 H 0.0 **** 0.06
12771 C 97.58125879681127 48.009715972148854 46.660213862388105 C 0.0 **** -0.24
12772 H 98.2126722874369 47.12098443352696 46.67491594301771 H 0.0 **** 0.06
12773 H 97.41113835663145 48.3172251580433 45.62742390233251 H 0.0 **** 0.06
12774 H 98.07629854785439 48.81530529887476 47.20219663803471 H 0.0 **** 0.06
12775 H 96.62691872572016 47.7848477769019 47.13498551196824 H 0.0 **** 0.06
12776 C 45.7457940190497 22.388870266967274 94.70155482026252 C 0.0 **** -0.24
12777 H 46.05476047076701 22.25478880933059 93.66510427333458 H 0.0 **** 0.06
12778 H 45.24005200736326 21.486985629781515 95.04897253673818 H 0.0 **** 0.06
12779 H 45.066235091894384 23.237461722726835 94.77098824886468 H 0.0 **** 0.06
12780 H 46.62347790734543 22.574339827945607 95.3204125407463 H 0.0 **** 0.06
12781 C 64.89671112189322 17.81965346789849 1.6956845142541566 C 0.0 **** -0.24
12782 H 64.13492290550889 17.25282545934283 1.161106596577353 H 0.0 **** 0.06
12783 H 65.63234054034805 17.13293588599018 2.1153942039738487 H 0.0 **** 0.06
12784 H 64.42876254820067 18.387062415619027 2.5008001166084366 H 0.0 **** 0.06
12785 H 65.39059112989514 18.505003126295122 1.0065899887260414 H 0.0 **** 0.06
12786 C 103.07187766529395 33.843203051071924 105.65122017204857 C 0.0 **** -0.24
12787 H 102.57554893536067 34.41822641022267 106.43245877403001 H 0.0 **** 0.06
12788 H 104.08920633700005 34.21165102699098 105.51962867384151 H 0.0 **** 0.06
12789 H 102.5225199092196 33.95155439491367 104.71642614694997 H 0.0 **** 0.06
12790 H 103.09882766308789 32.791314376983905 105.93624963525014 H 0.0 **** 0.06
12791 C 33.717659897586316 86.90486835434952 100.70054726210637 C 0.0 **** -0.24
12792 H 33.31080920463097 87.91586117539015 100.72224732880963 H 0.0 **** 0.06
12793 H 33.07932529537436 86.26955555058159 100.08599582143106 H 0.0 **** 0.06
12794 H 33.75879742237254 86.50743214341742 101.71484556279853 H 0.0 **** 0.06
12795 H 34.722767762780194 86.92739013799363 100.27856166103601 H 0.0 **** 0.06
12796 C 1.3480384968624985 78.30309377279852 93.86871475398311 C 0.0 **** -0.24
12797 H 0.5108709227598638 78.85717459453105 93.44503949839486 H 0.0 **** 0.06
12798 H 2.281637108700343 78.80437299830245 93.61381747788448 H 0.0 **** 0.06
12799 H 1.3559234355518122 77.29169010469943 93.4633528510451 H 0.0 **** 0.06
12800 H 1.2423988542831665 78.25962562801968 94.95274734264069 H 0.0 **** 0.06
12801 C 103.2105397377072 104.08204662696755 6.36531442388349 C 0.0 **** -0.24
12802 H 103.32503952755141 103.87465185790563 7.428412717531842 H 0.0 **** 0.06
12803 H 104.00140969795737 104.75844535404201 6.040132378562632 H 0.0 **** 0.06
12804 H 102.23964818048971 104.54617749746615 6.187854417904987 H 0.0 **** 0.06
12805 H 103.27569477477887 103.14970049654403 5.8037430429113215 H 0.0 **** 0.06
12806 C 27.39114177959982 0.11040835332374943 71.63643487276299 C 0.0 **** -0.24
12807 H 28.01108528045023 0.935737935918076 71.98869198422574 H 0.0 **** 0.06
12808 H 28.030508017135787 -0.7068726935583811 71.30298718685547 H 0.0 **** 0.06
12809 H 26.77153339063375 0.45016107078962 70.80642920637999 H 0.0 **** 0.06
12810 H 26.75304917482211 -0.23510603826477006 72.44910851001968 H 0.0 **** 0.06
12811 C 100.5717875410844 87.74981860425495 44.53037228908255 C 0.0 **** -0.24
12812 H 100.7523942446528 88.5224851765049 45.277831626606456 H 0.0 **** 0.06
12813 H 101.33940566404215 87.8053393652996 43.757913377011874 H 0.0 **** 0.06
12814 H 99.59101967410538 87.90329500463281 44.08024425436221 H 0.0 **** 0.06
12815 H 100.60589368451943 86.76991633334589 45.00617388297778 H 0.0 **** 0.06
12816 C 84.70571776024875 88.41214632579938 89.04717079256943 C 0.0 **** -0.24
12817 H 84.93584574662918 87.56631140613523 89.69403491956157 H 0.0 **** 0.06
12818 H 83.97175110681009 89.05414081030868 89.53587313109287 H 0.0 **** 0.06
12819 H 84.29961188434737 88.0482147896132 88.1037728481889 H 0.0 **** 0.06
12820 H 85.61641278524274 88.98063199857486 88.85596534260054 H 0.0 **** 0.06
12821 C 57.89229143088593 3.971235184668476 48.84342620090962 C 0.0 **** -0.24
12822 H 58.45501874063383 4.867818038829727 48.5873462825316 H 0.0 **** 0.06
12823 H 57.77953928229173 3.9095057976315246 49.92575392017011 H 0.0 **** 0.06
12824 H 58.426019334666584 3.0919025994290665 48.48344624104345 H 0.0 **** 0.06
12825 H 56.90752403647663 4.014789406843743 48.37726730649035 H 0.0 **** 0.06
12826 C 62.68873631514042 66.49475891546359 19.911145461570797 C 0.0 **** -0.24
12827 H 61.637769895717994 66.35384719143548 20.166651649882027 H 0.0 **** 0.06
12828 H 63.18445274083243 65.52438051151256 19.86848522715215 H 0.0 **** 0.06
12829 H 63.166644709037655 67.11401956920338 20.668865442774916 H 0.0 **** 0.06
12830 H 62.764355523547394 66.98395426775778 18.94053871490999 H 0.0 **** 0.06
12831 C 56.57081571797226 33.80717488496101 83.26901419529244 C 0.0 **** -0.24
12832 H 56.10760714038683 34.76527451038665 83.03497200972086 H 0.0 **** 0.06
12833 H 56.79750663608666 33.27796826108204 82.34208185335467 H 0.0 **** 0.06
12834 H 55.88614229876971 33.2092713065014 83.87122638715569 H 0.0 **** 0.06
12835 H 57.492459129760334 33.97474687503511 83.82584620455707 H 0.0 **** 0.06
12836 C 80.62693701986274 41.944342856950136 106.89220612659233 C 0.0 **** -0.24
12837 H 79.95552229133281 41.16325434361524 107.25043498583011 H 0.0 **** 0.06
12838 H 81.16452253182007 42.375350640224 107.7360674364363 H 0.0 **** 0.06
12839 H 80.04728550536649 42.72176368795933 106.39510572814697 H 0.0 **** 0.06
12840 H 81.33886034725151 41.515117124559346 106.18735486630942 H 0.0 **** 0.06
12841 C 11.254077463623723 27.483113274451853 101.60938766399622 C 0.0 **** -0.24
12842 H 11.809377542483979 26.886599071438013 102.33402243395597 H 0.0 **** 0.06
12843 H 11.191748285399214 28.51344748473315 101.95830930027778 H 0.0 **** 0.06
12844 H 10.249735236851736 27.075244112707992 101.49748021984944 H 0.0 **** 0.06
12845 H 11.76629579759862 27.454012309777625 100.64833859528456 H 0.0 **** 0.06
12846 C 81.82959705337163 108.20601698411068 3.0165585744384202 C 0.0 **** -0.24
12847 H 81.48643821239432 107.52792644731815 3.798178121592798 H 0.0 **** 0.06
12848 H 82.7179052088577 107.79188233276074 2.5406101251387554 H 0.0 **** 0.06
12849 H 82.07022040976113 109.17417779334625 3.4568970376716948 H 0.0 **** 0.06
12850 H 81.04239276818657 108.33128819122001 2.272893046656975 H 0.0 **** 0.06
12851 C 45.91346760719952 5.029487259186197 71.10405757345012 C 0.0 **** -0.24
12852 H 44.97440318768963 4.852358274664397 71.62702615121754 H 0.0 **** 0.06
12853 H 46.54022294351614 4.139379573183987 71.17118427625226 H 0.0 **** 0.06
12854 H 46.43054958921056 5.8729921525858515 71.560130507634 H 0.0 **** 0.06
12855 H 45.7089820288779 5.251080179898821 70.05673046376603 H 0.0 **** 0.06
12856 C 61.61443687870491 83.72939538493881 56.797615946026724 C 0.0 **** -0.24
12857 H 61.14456862285577 82.757691525106 56.94624381469927 H 0.0 **** 0.06
12858 H 61.47562620812607 84.04626835707097 55.76334371654457 H 0.0 **** 0.06
12859 H 62.67942493055796 83.65506870434501 57.0143110933094 H 0.0 **** 0.06
12860 H 61.15734871954207 84.45953299067583 57.46590733576261 H 0.0 **** 0.06
12861 C 104.71466183673752 61.81258118980507 41.53488235641969 C 0.0 **** -0.24
12862 H 105.69571931450555 62.07780034830735 41.9286740220576 H 0.0 **** 0.06
12863 H 104.77721857423901 60.85225696735361 41.02163390010985 H 0.0 **** 0.06
12864 H 104.38659519264965 62.57878260158027 40.832148724104194 H 0.0 **** 0.06
12865 H 104.00074769412304 61.74143434836121 42.35554647365734 H 0.0 **** 0.06
12866 C 100.25794447401051 29.762418563422045 53.39611236308906 C 0.0 **** -0.24
12867 H 99.23022834594862 29.59520440385964 53.71566479656735 H 0.0 **** 0.06
12868 H 100.61612892452918 30.708854392152205 53.80174767754863 H 0.0 **** 0.06
12869 H 100.29876898964638 29.79450227566656 52.30734982812908 H 0.0 **** 0.06
12870 H 100.88808732284446 28.94940032693472 53.759615189893566 H 0.0 **** 0.06
12871 C 32.69093330507195 48.42789723688918 56.52973584166185 C 0.0 **** -0.24
12872 H 31.774231073263195 48.81935915328128 56.089327597060446 H 0.0 **** 0.06
12873 H 32.63842154396434 48.514406234317335 57.6148273354799 H 0.0 **** 0.06
12874 H 33.54384364144133 48.99706090325034 56.15999871524048 H 0.0 **** 0.06
12875 H 32.80790459612675 47.37964897504892 56.25326847742872 H 0.0 **** 0.06
12876 C 24.899775941215072 81.80217639709025 18.076251882579896 C 0.0 **** -0.24
12877 H 23.878349107519867 81.54550349947647 18.357260980674084 H 0.0 **** 0.06
12878 H 24.88419295208688 82.64621800230213 17.386570207655154 H 0.0 **** 0.06
12879 H 25.369421916488296 80.94626425735296 17.59281536252621 H 0.0 **** 0.06
12880 H 25.465806983795137 82.07117717378213 18.968240289927053 H 0.0 **** 0.06
12881 C 49.80409345467632 38.40096382862498 39.47228357980259 C 0.0 **** -0.24
12882 H 49.14292118952193 38.84994638959017 38.73157464677642 H 0.0 **** 0.06
12883 H 50.52794825019666 37.75873966596026 38.969830336614976 H 0.0 **** 0.06
12884 H 49.216013089655746 37.807298503021585 40.1719169209221 H 0.0 **** 0.06
12885 H 50.32924101687885 39.18629463360392 40.0142460656856 H 0.0 **** 0.06
12886 C 63.627486335630266 74.93571989349743 32.79409304209082 C 0.0 **** -0.24
12887 H 62.997948998725946 74.05113560218959 32.688200023693305 H 0.0 **** 0.06
12888 H 63.561742907798845 75.30746979511594 33.81674238914942 H 0.0 **** 0.06
12889 H 63.28710735536373 75.70686307029194 32.1032513828652 H 0.0 **** 0.06
12890 H 64.66118185846415 74.67443994852997 32.56761739463813 H 0.0 **** 0.06
12891 C 40.20053671289679 32.917452988082914 99.93382122616572 C 0.0 **** -0.24
12892 H 39.686217949553594 32.09902185700588 100.43639708997654 H 0.0 **** 0.06
12893 H 39.92205739459433 32.92860488664138 98.87939397091986 H 0.0 **** 0.06
12894 H 41.27751664484856 32.779145143627176 100.0235150275501 H 0.0 **** 0.06
12895 H 39.91633289581742 33.86360800129222 100.39515600673633 H 0.0 **** 0.06
12896 C 7.063870479981901 13.961928954040946 3.808806199734761 C 0.0 **** -0.24
12897 H 6.050515934651685 13.659598633235792 3.547339692823982 H 0.0 **** 0.06
12898 H 7.112895573720351 14.187680333085936 4.874638166284882 H 0.0 **** 0.06
12899 H 7.3374656446615205 14.84912386725319 3.2370686967290396 H 0.0 **** 0.06
12900 H 7.756043742260459 13.15298304870063 3.576553045460571 H 0.0 **** 0.06
12901 C 62.767975837451274 79.50431491827825 18.048861868211716 C 0.0 **** -0.24
12902 H 63.49379703022355 79.21743508516442 18.810111135069292 H 0.0 **** 0.06
12903 H 63.202426538090506 80.26898811705257 17.403984040690545 H 0.0 **** 0.06
12904 H 61.87402184921038 79.8996952769636 18.529575323422705 H 0.0 **** 0.06
12905 H 62.5049023316391 78.6317894342084 17.452009787663187 H 0.0 **** 0.06
12906 C 56.632568640113334 26.593051613933408 106.18169838599528 C 0.0 **** -0.24
12907 H 55.6447898186251 26.48071526562728 106.62923322635498 H 0.0 **** 0.06
12908 H 56.86369326611367 25.71033542032188 105.58511527133058 H 0.0 **** 0.06
12909 H 57.37756342055724 26.704862489044523 106.97004793651462 H 0.0 **** 0.06
12910 H 56.642745474948015 27.476890965578868 105.54396075183979 H 0.0 **** 0.06
12911 C 55.92650610420145 49.101963218195124 65.48620829845021 C 0.0 **** -0.24
12912 H 54.9378023482941 48.66682690704596 65.63023646701555 H 0.0 **** 0.06
12913 H 56.307307033404186 49.46180013142401 66.44290887545395 H 0.0 **** 0.06
12914 H 55.858415654579574 49.93374141019967 64.78508163964375 H 0.0 **** 0.06
12915 H 56.60154857166583 48.34467439805235 65.08726947587769 H 0.0 **** 0.06
12916 C 12.728296692370424 107.19899635338996 57.531395712443526 C 0.0 **** -0.24
12917 H 12.47553063704175 107.93193565616494 56.76409052574824 H 0.0 **** 0.06
12918 H 11.822357235102775 106.89684584411151 58.05666956909798 H 0.0 **** 0.06
12919 H 13.429766632320934 107.64177592010441 58.23863757489514 H 0.0 **** 0.06
12920 H 13.185749703612167 106.32722594928643 57.062910921652126 H 0.0 **** 0.06
12921 C 15.582605811767294 60.26884353015191 40.346395215627744 C 0.0 **** -0.24
12922 H 15.968953248758439 60.601515420053886 41.31001856261867 H 0.0 **** 0.06
12923 H 15.961209464580094 60.9218196222366 39.55917070706307 H 0.0 **** 0.06
12924 H 14.493563192991516 60.308032000201536 40.35985936146209 H 0.0 **** 0.06
12925 H 15.907233163260557 59.2460792448569 40.158634483763585 H 0.0 **** 0.06
12926 C 50.17185028634799 56.01951631234541 71.6450480092733 C 0.0 **** -0.24
12927 H 49.084096833802334 56.05931396204513 71.69347722607961 H 0.0 **** 0.06
12928 H 50.48991469293219 56.02825182903486 70.60285438380055 H 0.0 **** 0.06
12929 H 50.52352400477838 55.106445068645776 72.12553876889157 H 0.0 **** 0.06
12930 H 50.5898533933007 56.88459047977925 72.15963030538256 H 0.0 **** 0.06
12931 C 65.2017547370859 41.418832768857584 12.599461831825181 C 0.0 **** -0.24
12932 H 64.84892662254882 41.720927963882275 11.613804367585303 H 0.0 **** 0.06
12933 H 65.30662326356591 40.33378796770961 12.631854697244265 H 0.0 **** 0.06
12934 H 64.48441488329635 41.737329704208435 13.355775983464667 H 0.0 **** 0.06
12935 H 66.16775576987874 41.8840195071094 12.79739666418206 H 0.0 **** 0.06
12936 C 71.52832343032735 39.51473230747783 70.67028338305359 C 0.0 **** -0.24
12937 H 70.83457699041328 39.980263585679864 69.9701545567048 H 0.0 **** 0.06
12938 H 72.55250355074499 39.72280604158661 70.35885229717155 H 0.0 **** 0.06
12939 H 71.36332409769031 38.43764464854473 70.68237586546648 H 0.0 **** 0.06
12940 H 71.36302766241444 39.919012620473836 71.66859123404896 H 0.0 **** 0.06
12941 C 1.6689681927156244 99.41381981469989 37.17250864634251 C 0.0 **** -0.24
12942 H 1.4427850702862912 100.16584912044456 36.41732262437649 H 0.0 **** 0.06
12943 H 0.8764728500925116 99.40143043860782 37.921025524782024 H 0.0 **** 0.06
12944 H 2.6181819733714065 99.6542452103674 37.65095683821112 H 0.0 **** 0.06
12945 H 1.7382295819077314 98.43334075361003 36.699842161625696 H 0.0 **** 0.06
12946 C 76.29843117906734 68.58698806726521 41.67013347724273 C 0.0 **** -0.24
12947 H 76.78536636802036 68.155704985479 40.795766926567126 H 0.0 **** 0.06
12948 H 77.05367687808098 68.86613801429499 42.405034231944256 H 0.0 **** 0.06
12949 H 75.61916355230065 67.85445405273728 42.10651093843441 H 0.0 **** 0.06
12950 H 75.73625406196942 69.47232891937155 41.37315649805012 H 0.0 **** 0.06
12951 C 19.494475729091178 91.09973422162535 82.27406707742463 C 0.0 **** -0.24
12952 H 18.898632143025537 92.01138610355393 82.21295882784133 H 0.0 **** 0.06
12953 H 20.51817581551306 91.31406975852525 81.96513774040709 H 0.0 **** 0.06
12954 H 19.067385629764118 90.34324191111217 81.61680440232007 H 0.0 **** 0.06
12955 H 19.492673088118863 90.73311705519619 83.300564747861 H 0.0 **** 0.06
12956 C 84.30716133444524 59.48216888333481 73.95721289900315 C 0.0 **** -0.24
12957 H 84.11418638439895 58.43611751979184 74.19400404873447 H 0.0 **** 0.06
12958 H 85.26141737603716 59.566414115631915 73.43626754680902 H 0.0 **** 0.06
12959 H 84.34379239078385 60.06279698630111 74.87856516515431 H 0.0 **** 0.06
12960 H 83.50924918656081 59.863346911614315 73.32001483531467 H 0.0 **** 0.06
12961 C 55.2211045951687 12.591501384098876 105.9913469517143 C 0.0 **** -0.24
12962 H 54.93316858664468 13.57864969032164 106.35286450029798 H 0.0 **** 0.06
12963 H 55.61294822588994 12.675612018859965 104.97741161740026 H 0.0 **** 0.06
12964 H 54.348541465255664 11.936892343934744 105.99061193807559 H 0.0 **** 0.06
12965 H 55.98803384049802 12.17473118222938 106.64442428937215 H 0.0 **** 0.06
12966 C 38.97192204331418 32.95510113754443 62.676334728138215 C 0.0 **** -0.24
12967 H 37.91798389842927 33.223269854047686 62.74679583722353 H 0.0 **** 0.06
12968 H 39.25072710538234 32.346940844598976 63.536528677292225 H 0.0 **** 0.06
12969 H 39.576651546789094 33.86204205057339 62.6599246286231 H 0.0 **** 0.06
12970 H 39.14168198607592 32.389238533094755 61.759368521330416 H 0.0 **** 0.06
12971 C 64.9499546819867 84.09895228915786 14.987080092063785 C 0.0 **** -0.24
12972 H 65.2718580096336 83.81302739933375 15.988362799595155 H 0.0 **** 0.06
12973 H 65.57799773470794 84.91168758531938 14.62163632537818 H 0.0 **** 0.06
12974 H 63.911357498724215 84.42814337923267 15.018844511685774 H 0.0 **** 0.06
12975 H 65.03880115957202 83.24213515436281 14.318932218061647 H 0.0 **** 0.06
12976 C 54.11465803362336 44.24433311482153 47.293300949495325 C 0.0 **** -0.24
12977 H 54.17664122179008 43.19249894721992 47.01307271676865 H 0.0 **** 0.06
12978 H 53.07054813046 44.55851670135763 47.295767944110665 H 0.0 **** 0.06
12979 H 54.67332125468823 44.84428587468119 46.57454926642543 H 0.0 **** 0.06
12980 H 54.5386023481004 44.38098064589218 48.28818111214575 H 0.0 **** 0.06
12981 C 5.450815355017994 45.43085615920478 50.83566048275395 C 0.0 **** -0.24
12982 H 5.117003279395618 45.27391262953634 51.86157330195769 H 0.0 **** 0.06
12983 H 5.726411272840892 46.47693381561379 50.69943521277986 H 0.0 **** 0.06
12984 H 4.645035597905746 45.173170861495294 50.148704801247476 H 0.0 **** 0.06
12985 H 6.315401303447345 44.79760857836237 50.63546176481606 H 0.0 **** 0.06
12986 C 103.58458024409157 72.7742646187568 53.649909721361595 C 0.0 **** -0.24
12987 H 104.55039609586134 72.83075648594274 53.14648511090815 H 0.0 **** 0.06
12988 H 102.8619069528238 73.39309146705024 53.11925027797248 H 0.0 **** 0.06
12989 H 103.68869373146316 73.131885634441 54.67416576398951 H 0.0 **** 0.06
12990 H 103.24078175417918 71.73996091483257 53.659306960126294 H 0.0 **** 0.06
12991 C 7.41899908351715 64.5391647864146 47.886680003409566 C 0.0 **** -0.24
12992 H 6.478573977266336 63.99483109952236 47.795184822620996 H 0.0 **** 0.06
12993 H 7.843258232887422 64.69950324928813 46.89564438214791 H 0.0 **** 0.06
12994 H 8.115686500396691 63.958834117120844 48.49141945895582 H 0.0 **** 0.06
12995 H 7.236247596079778 65.50104025253322 48.36462277383575 H 0.0 **** 0.06
12996 C 13.216337986378505 67.42771484122275 19.272484049648185 C 0.0 **** -0.24
12997 H 12.63211539919638 66.9083062519829 20.032531142001545 H 0.0 **** 0.06
12998 H 14.012278910010764 67.99592731608595 19.753169456431124 H 0.0 **** 0.06
12999 H 12.569205600265434 68.10559333673606 18.716901267809476 H 0.0 **** 0.06
13000 H 13.651276758157337 66.69763773985679 18.5888345587162 H 0.0 **** 0.06
13001 C 0.8058481280696554 82.24004418929698 53.244104149966745 C 0.0 **** -0.24
13002 H 0.8158292841439732 83.01381673987017 52.47741502967909 H 0.0 **** 0.06
13003 H 0.273747840456096 81.36499908057485 52.87050781682956 H 0.0 **** 0.06
13004 H 0.3032405934130651 82.61820560739008 54.13472837344207 H 0.0 **** 0.06
13005 H 1.8300462415151486 81.96381355363694 53.49430149774702 H 0.0 **** 0.06
13006 C 96.27642931583627 69.54852149670182 83.80627301796913 C 0.0 **** -0.24
13007 H 95.68281700820528 69.88212367501657 84.65753671903695 H 0.0 **** 0.06
13008 H 96.30981395959485 70.33801229731984 83.0550276265069 H 0.0 **** 0.06
13009 H 95.82252469412045 68.65587132003259 83.37577200299926 H 0.0 **** 0.06
13010 H 97.2888363113718 69.31818213472008 84.13686896193747 H 0.0 **** 0.06
13011 C 5.669622469823253 32.65945226174823 97.37001954775229 C 0.0 **** -0.24
13012 H 6.092891349620629 32.40405304095118 96.3980382682033 H 0.0 **** 0.06
13013 H 4.582930259665716 32.69550645909166 97.2946604906451 H 0.0 **** 0.06
13014 H 6.045837702253323 33.632797192196705 97.68600948833051 H 0.0 **** 0.06
13015 H 5.95881303034696 31.90402624181064 98.1015605775607 H 0.0 **** 0.06
13016 C 10.710386159635902 57.70861430315883 28.754203510662876 C 0.0 **** -0.24
13017 H 11.16210615005997 58.56175063240305 29.260670026919485 H 0.0 **** 0.06
13018 H 10.448179515943025 56.94756964145757 29.490825315687204 H 0.0 **** 0.06
13019 H 11.419597713114456 57.29326958193007 28.038632011672917 H 0.0 **** 0.06
13020 H 9.811218055865822 58.03226499122284 28.2302428241411 H 0.0 **** 0.06
13021 C 93.59979176238635 69.43015086163595 31.74525332923963 C 0.0 **** -0.24
13022 H 93.18811905452793 69.45166995169333 32.754529999534554 H 0.0 **** 0.06
13023 H 93.41866770525448 70.3886930515395 31.258539009415358 H 0.0 **** 0.06
13024 H 93.12045280679449 68.63487994928 31.175306706007007 H 0.0 **** 0.06
13025 H 94.67301933036997 69.24514267472432 31.795237759760823 H 0.0 **** 0.06
13026 C 106.38669227618993 45.883007075018384 5.155721411661531 C 0.0 **** -0.24
13027 H 105.81162834086969 46.64803192868851 5.675777392805699 H 0.0 **** 0.06
13028 H 106.70422109347301 46.265030561832475 4.184751566243875 H 0.0 **** 0.06
13029 H 105.76852326219617 44.99648665058291 5.013811317387905 H 0.0 **** 0.06
13030 H 107.26459260695806 45.62251182606275 5.7481259757645375 H 0.0 **** 0.06
13031 C 38.537886017250656 59.4017153625156 104.54101072737029 C 0.0 **** -0.24
13032 H 38.118779744978156 59.84743551515389 103.63955840835769 H 0.0 **** 0.06
13033 H 39.52853669074193 59.00157737520648 104.32159383222836 H 0.0 **** 0.06
13034 H 37.88754238175568 58.59562733908904 104.88303879219853 H 0.0 **** 0.06
13035 H 38.61596511864789 60.161062415424695 105.31947948138873 H 0.0 **** 0.06
13036 C 96.61241428394663 65.90876723929642 103.59834491822927 C 0.0 **** -0.24
13037 H 95.610930377057 66.27213896384364 103.82934026562805 H 0.0 **** 0.06
13038 H 96.54274305046994 65.06763121896154 102.90728698422936 H 0.0 **** 0.06
13039 H 97.10276215045872 65.58620243484961 104.51632788890831 H 0.0 **** 0.06
13040 H 97.19190638185154 66.70945769374958 103.13794660523355 H 0.0 **** 0.06
13041 C 18.98265403643809 84.24432279312805 33.601521144963584 C 0.0 **** -0.24
13042 H 19.1315221748359 84.37270659853084 32.52842057065388 H 0.0 **** 0.06
13043 H 18.86166464525136 85.22106079405492 34.07046925633014 H 0.0 **** 0.06
13044 H 19.849238663923533 83.7399758168977 34.03003499157148 H 0.0 **** 0.06
13045 H 18.089625646293673 83.64409955188302 33.77422086455309 H 0.0 **** 0.06
13046 C 17.38230809975046 18.270080784875518 11.28124598021185 C 0.0 **** -0.24
13047 H 18.287793088427676 18.86493012291561 11.40573341047633 H 0.0 **** 0.06
13048 H 17.038986767247366 17.92191447290935 12.254791297397276 H 0.0 **** 0.06
13049 H 17.596019068190344 17.412744685725727 10.642331010598639 H 0.0 **** 0.06
13050 H 16.606949854107896 18.882173941399685 10.820215139464722 H 0.0 **** 0.06
13051 C 10.984339412525316 87.48105786473795 7.68553782980068 C 0.0 **** -0.24
13052 H 9.943805111108901 87.2471601508401 7.910119837474795 H 0.0 **** 0.06
13053 H 11.428349095359025 86.65742387073183 7.126132497229605 H 0.0 **** 0.06
13054 H 11.533247683706904 87.62606574533136 8.616597624924879 H 0.0 **** 0.06
13055 H 11.03202905753028 88.39314189622787 7.0906434870599355 H 0.0 **** 0.06
13056 C 85.34311611363592 0.01917549249003514 87.69931552793764 C 0.0 **** -0.24
13057 H 85.12547085755597 0.5287294421057709 88.63789859344342 H 0.0 **** 0.06
13058 H 86.39216984340919 0.16555117068909908 87.44177270741056 H 0.0 **** 0.06
13059 H 84.71285756646046 0.4300371521627824 86.90979935558994 H 0.0 **** 0.06
13060 H 85.13935691897939 -1.0462211282286091 87.80828851697629 H 0.0 **** 0.06
13061 C 85.9797773324425 97.71439053010099 27.176021184887702 C 0.0 **** -0.24
13062 H 86.10367402823539 98.0804275640917 28.194280123880105 H 0.0 **** 0.06
13063 H 84.96760678396583 97.93006096654561 26.83247358582844 H 0.0 **** 0.06
13064 H 86.14841196709193 96.63740108542294 27.154480657321557 H 0.0 **** 0.06
13065 H 86.69889005882544 98.20734267080447 26.522307252370126 H 0.0 **** 0.06
13066 C 5.737800904016638 86.3288226184853 39.54626640009849 C 0.0 **** -0.24
13067 H 4.838189383827881 86.79090055612166 39.13896800129544 H 0.0 **** 0.06
13068 H 5.52427966273865 85.2936576226383 39.8129009470496 H 0.0 **** 0.06
13069 H 6.056610005060861 86.87476777950067 40.43494045041125 H 0.0 **** 0.06
13070 H 6.529776097775851 86.35646993421896 38.79873531927538 H 0.0 **** 0.06
13071 C 76.57780002597656 99.99900092801425 6.257348121279165 C 0.0 **** -0.24
13072 H 76.09734122715244 99.0706606710333 6.564177892880437 H 0.0 **** 0.06
13073 H 77.65842680147296 99.86131256072173 6.240871061473001 H 0.0 **** 0.06
13074 H 76.3219983435674 100.79031437884467 6.962320042448496 H 0.0 **** 0.06
13075 H 76.23125997166943 100.27390092601371 5.260909529414363 H 0.0 **** 0.06
13076 C 25.084860421476208 30.531117810321746 28.424591017735594 C 0.0 **** -0.24
13077 H 26.00299537597203 30.168554248689702 27.9616171896875 H 0.0 **** 0.06
13078 H 24.246807663728113 30.36587314042447 27.74643122181712 H 0.0 **** 0.06
13079 H 25.180315274644293 31.59698829405943 28.631987621630543 H 0.0 **** 0.06
13080 H 24.91058826391751 29.992980518731144 29.356231680563155 H 0.0 **** 0.06
13081 C 79.20799076486152 2.2261194152991095 10.883718278765144 C 0.0 **** -0.24
13082 H 80.05632662140916 2.3937830820744637 10.219691876383052 H 0.0 **** 0.06
13083 H 79.41274425437521 2.6789242069281727 11.854538426474846 H 0.0 **** 0.06
13084 H 79.0513462369923 1.1542971936249131 11.007929845704098 H 0.0 **** 0.06
13085 H 78.31485529099542 2.6772764580764488 10.452612536475357 H 0.0 **** 0.06
13086 C 17.163019532356962 101.8979431719858 81.00519707270581 C 0.0 **** -0.24
13087 H 18.03510560955288 102.30960695743762 80.49804855366398 H 0.0 **** 0.06
13088 H 16.509726914951557 101.42059616573154 80.27396693331943 H 0.0 **** 0.06
13089 H 16.622319862950878 102.7003422095229 81.50696246486908 H 0.0 **** 0.06
13090 H 17.48467073239794 101.16113124612258 81.74084816294808 H 0.0 **** 0.06
13091 C 86.87175824967676 58.181095178757715 14.893962189415703 C 0.0 **** -0.24
13092 H 87.87831147363522 57.860516677091795 14.626124789374614 H 0.0 **** 0.06
13093 H 86.68064713148033 59.16951110234237 14.474369008524206 H 0.0 **** 0.06
13094 H 86.78137762618121 58.22352745326816 15.979392385036448 H 0.0 **** 0.06
13095 H 86.14669676741016 57.47082548232842 14.495962574727628 H 0.0 **** 0.06
13096 C 6.877825393913952 44.73017310506509 8.738540264264298 C 0.0 **** -0.24
13097 H 7.5010208857761995 44.81095066831455 7.8473151070179945 H 0.0 **** 0.06
13098 H 7.11842963569228 45.541788835668854 9.424235023519682 H 0.0 **** 0.06
13099 H 7.066365496762728 43.77323332612423 9.226066463619444 H 0.0 **** 0.06
13100 H 5.827946017594286 44.79238699509921 8.454197980775785 H 0.0 **** 0.06
13101 C 89.87324342768551 73.12599234503887 45.02681985767447 C 0.0 **** -0.24
13102 H 90.83334030000876 72.97164702716628 45.5187846520617 H 0.0 **** 0.06
13103 H 89.45834008128901 72.16283278618573 44.728285467097294 H 0.0 **** 0.06
13104 H 90.01327278130687 73.75044215288176 44.14482493186699 H 0.0 **** 0.06
13105 H 89.18656763312434 73.61923417474651 45.71630866696472 H 0.0 **** 0.06
13106 C 8.254627214526597 102.01057105473691 30.69643146465765 C 0.0 **** -0.24
13107 H 8.790810576343564 101.08044163676578 30.5098691458862 H 0.0 **** 0.06
13108 H 7.474870795669995 102.1374469120831 29.94516631310593 H 0.0 **** 0.06
13109 H 8.950463026537186 102.84785964272288 30.643025416725052 H 0.0 **** 0.06
13110 H 7.802364459555331 101.976536027376 31.68766498291327 H 0.0 **** 0.06
13111 C 92.73941701313584 20.983290991831673 100.8283085838351 C 0.0 **** -0.24
13112 H 93.21431868430838 20.847460077224977 99.85630021846748 H 0.0 **** 0.06
13113 H 91.713281012852 21.32307346870286 100.68756183847654 H 0.0 **** 0.06
13114 H 93.29351907976366 21.725757216811303 101.40230131073145 H 0.0 **** 0.06
13115 H 92.73877121696572 20.03487530609682 101.3668029673045 H 0.0 **** 0.06
13116 C 3.642006954079264 88.50086267395298 94.91991705966257 C 0.0 **** -0.24
13117 H 2.610487207803928 88.73931210097561 95.17904780663116 H 0.0 **** 0.06
13118 H 4.219106164901504 89.42243839223268 94.84230537964879 H 0.0 **** 0.06
13119 H 3.663403837694929 87.97600998036721 93.96469106507874 H 0.0 **** 0.06
13120 H 4.072894147626926 87.86586312105698 95.69426108987727 H 0.0 **** 0.06
13121 C 51.87241051535088 76.50117154176877 13.125109539481173 C 0.0 **** -0.24
13122 H 51.961082179009885 76.82646800397981 14.161420007996782 H 0.0 **** 0.06
13123 H 51.471692947283586 77.31627695591493 12.52199471762583 H 0.0 **** 0.06
13124 H 51.200920492956314 75.64396226908016 13.070986509272728 H 0.0 **** 0.06
13125 H 52.85442371171602 76.21764434217249 12.747926270763116 H 0.0 **** 0.06
13126 C 52.975605724098784 17.231800913131316 105.57069540610516 C 0.0 **** -0.24
13127 H 53.900053944963474 17.463919439847466 106.099495311873 H 0.0 **** 0.06
13128 H 52.77706886229953 16.16210773065354 105.6396989496518 H 0.0 **** 0.06
13129 H 53.074132164770276 17.516799223863273 104.52359305692579 H 0.0 **** 0.06
13130 H 52.15027644807574 17.78481653339385 106.02141291653714 H 0.0 **** 0.06
13131 C 38.701207964701496 91.234141536193 31.940814404512935 C 0.0 **** -0.24
13132 H 39.69263630805116 91.17459632720946 31.492188665723916 H 0.0 **** 0.06
13133 H 37.953821549638235 91.36044594039728 31.15646072854156 H 0.0 **** 0.06
13134 H 38.66135394721019 92.08612083448902 32.62079299342713 H 0.0 **** 0.06
13135 H 38.49672903460271 90.3185434403071 32.49484175629283 H 0.0 **** 0.06
13136 C 24.11867773793753 61.99718622617502 104.0799322819309 C 0.0 **** -0.24
13137 H 23.321778834733465 62.710206535576276 104.29040085907707 H 0.0 **** 0.06
13138 H 24.92095692504975 62.49843018602968 103.53943676023789 H 0.0 **** 0.06
13139 H 23.724841530695016 61.18161773756981 103.47236252472601 H 0.0 **** 0.06
13140 H 24.50519485901097 61.597526215928724 105.0169708127296 H 0.0 **** 0.06
13141 C 3.511684782472855 51.62398652837938 68.49258187666402 C 0.0 **** -0.24
13142 H 3.6747792176434473 51.97666567865153 67.47415834551435 H 0.0 **** 0.06
13143 H 3.5823156203263693 50.53624584723122 68.51565541775176 H 0.0 **** 0.06
13144 H 2.521367862428548 51.931749425174615 68.82896155062787 H 0.0 **** 0.06
13145 H 4.268769645341024 52.051532098090284 69.1507180402175 H 0.0 **** 0.06
13146 C 25.026414835241745 49.09804907834729 103.90842814862465 C 0.0 **** -0.24
13147 H 24.70024250940278 48.156986496630736 103.46390844385728 H 0.0 **** 0.06
13148 H 24.863777343249055 49.90998136780894 103.19816343118244 H 0.0 **** 0.06
13149 H 26.08620226174501 49.0355604293527 104.15300447971491 H 0.0 **** 0.06
13150 H 24.453333139492134 49.28928728365702 104.81573305152806 H 0.0 **** 0.06
13151 C 62.272360921099505 69.43125369046064 42.51539375206466 C 0.0 **** -0.24
13152 H 61.2565050327492 69.33361339763127 42.131508237328546 H 0.0 **** 0.06
13153 H 62.98255506344259 69.16400297423505 41.732590314513615 H 0.0 **** 0.06
13154 H 62.403732649309745 68.7656018697054 43.367711134936044 H 0.0 **** 0.06
13155 H 62.445392389108065 70.46108596837028 42.82713632654962 H 0.0 **** 0.06
13156 C 80.51307862642727 79.15224239221777 79.43358770484889 C 0.0 **** -0.24
13157 H 81.50818870210543 78.71308227474627 79.50583175549922 H 0.0 **** 0.06
13158 H 79.76245118168112 78.37158730163539 79.56202443779702 H 0.0 **** 0.06
13159 H 80.3916661523861 79.61676475228221 78.45580307811102 H 0.0 **** 0.06
13160 H 80.39130720289354 79.90517107416547 80.2115426689927 H 0.0 **** 0.06
13161 C 0.9826860442349812 108.6332154919451 22.094543358674542 C 0.0 **** -0.24
13162 H 0.7575267183237457 108.9888494783337 23.099604337041058 H 0.0 **** 0.06
13163 H 1.5540821892923447 107.70742587026034 22.155697641834934 H 0.0 **** 0.06
13164 H 1.567280116069611 109.38630878860172 21.565055702319228 H 0.0 **** 0.06
13165 H 0.05248596951609841 108.45128282961059 21.557046242688187 H 0.0 **** 0.06
13166 C 58.89029738675165 78.92992899858916 54.30366591835596 C 0.0 **** -0.24
13167 H 59.49164124650761 79.82945913471644 54.436025160752706 H 0.0 **** 0.06
13168 H 58.63667541875316 78.8138366994774 53.24995706917886 H 0.0 **** 0.06
13169 H 57.97595064196318 79.01588980651206 54.89136879258126 H 0.0 **** 0.06
13170 H 59.45675465416819 78.06222940357696 54.6397795498406 H 0.0 **** 0.06
13171 C 82.43210457439199 86.05558646076295 78.8351089635989 C 0.0 **** -0.24
13172 H 83.04107581633116 86.74992925758863 78.25715142593731 H 0.0 **** 0.06
13173 H 81.69816496766717 85.58487393956003 78.1811814237881 H 0.0 **** 0.06
13174 H 81.91696023297419 86.59870422458022 79.62878734502584 H 0.0 **** 0.06
13175 H 83.07080831592955 85.28969721276977 79.27512607205563 H 0.0 **** 0.06
13176 C 75.46856680725739 79.08711249466464 21.28900997685591 C 0.0 **** -0.24
13177 H 76.55090044775801 79.14003899841799 21.171440688542404 H 0.0 **** 0.06
13178 H 75.22942056922795 78.72497858763563 22.28997804871551 H 0.0 **** 0.06
13179 H 75.05541862304563 78.40321407645519 20.547456603822184 H 0.0 **** 0.06
13180 H 75.0376469996217 80.07825108562253 21.14832855246081 H 0.0 **** 0.06
13181 C 11.464123770957173 11.394320074374946 25.75964941442136 C 0.0 **** -0.24
13182 H 10.631761664635858 11.46828477618314 25.060425297238652 H 0.0 **** 0.06
13183 H 11.71306532006069 12.386964126178555 26.135806017218528 H 0.0 **** 0.06
13184 H 12.330452239960977 10.971198175403686 25.248994133537153 H 0.0 **** 0.06
13185 H 11.183341419962264 10.749358616417624 26.591853005195603 H 0.0 **** 0.06
13186 C 15.065912701875547 1.8081991393409282 75.5911020137329 C 0.0 **** -0.24
13187 H 15.710846020992733 2.252134052772675 76.34868673694888 H 0.0 **** 0.06
13188 H 14.043326950258717 1.759739682482106 75.96567501926762 H 0.0 **** 0.06
13189 H 15.416317606421345 0.8025971763295985 75.359479612712 H 0.0 **** 0.06
13190 H 15.093182332186402 2.4182187627832405 74.68811956835367 H 0.0 **** 0.06
13191 C 78.94880358167092 90.70526532868251 94.3365933185453 C 0.0 **** -0.24
13192 H 78.60083440090341 90.94048098967718 95.34257886561656 H 0.0 **** 0.06
13193 H 78.11303924825373 90.34357207553836 93.73719206905628 H 0.0 **** 0.06
13194 H 79.7182552396022 89.93414464802134 94.38952699200456 H 0.0 **** 0.06
13195 H 79.36586134843947 91.60181927613507 93.87752717852851 H 0.0 **** 0.06
13196 C 29.38253608106811 89.23882550150898 11.18576667927681 C 0.0 **** -0.24
13197 H 29.4332529741028 89.65981664722837 12.190046087215165 H 0.0 **** 0.06
13198 H 29.879817691011596 89.91023047869467 10.484675176909832 H 0.0 **** 0.06
13199 H 28.338570328454125 89.11877520774853 10.895428392147409 H 0.0 **** 0.06
13200 H 29.87789780710358 88.26856421538773 11.173453967981402 H 0.0 **** 0.06
13201 C 14.80716447118283 96.4704798117832 106.38854537927887 C 0.0 **** -0.24
13202 H 14.48109545424262 97.51051196953193 106.37954711800893 H 0.0 **** 0.06
13203 H 15.876015383557444 96.4225858924886 106.18120087276668 H 0.0 **** 0.06
13204 H 14.262437564949948 95.91272537088145 105.62602160787526 H 0.0 **** 0.06
13205 H 14.606388663785992 96.03567359722854 107.36805930443546 H 0.0 **** 0.06
13206 C 57.099218493193405 53.56431465630663 47.65863860223456 C 0.0 **** -0.24
13207 H 57.18129598149335 52.950200989719114 48.55552463869369 H 0.0 **** 0.06
13208 H 57.34351346230591 52.96169372574775 46.78276650046104 H 0.0 **** 0.06
13209 H 57.79268718978631 54.4023332876041 47.72787585452705 H 0.0 **** 0.06
13210 H 56.08113539841651 53.941390037282126 47.567920503805865 H 0.0 **** 0.06
13211 C 44.619320083353955 65.83965493501397 93.41132628830857 C 0.0 **** -0.24
13212 H 45.14589325952642 65.79784397903032 92.45802760335721 H 0.0 **** 0.06
13213 H 44.707541682461624 66.84058345146484 93.83248286702991 H 0.0 **** 0.06
13214 H 45.057321341582224 65.1162593350148 94.09987666683797 H 0.0 **** 0.06
13215 H 43.567111654114626 65.60109387379906 93.25568916715535 H 0.0 **** 0.06
13216 C 44.30449127610421 53.783414687419565 60.191892970385425 C 0.0 **** -0.24
13217 H 44.16272530534652 52.77336258745737 59.80562221319556 H 0.0 **** 0.06
13218 H 44.70889531694527 53.73031322860271 61.20352805907484 H 0.0 **** 0.06
13219 H 43.347035265378565 54.30336498816234 60.20976754188794 H 0.0 **** 0.06
13220 H 45.000631528959865 54.32276589034666 59.55020780585187 H 0.0 **** 0.06
13221 C 49.563910710778316 23.896277185511423 48.18039360505679 C 0.0 **** -0.24
13222 H 49.13628068101576 24.697322355948533 47.57742175118719 H 0.0 **** 0.06
13223 H 49.02667754763911 22.968168125611125 47.98495059620522 H 0.0 **** 0.06
13224 H 49.47617002666476 24.151615205771375 49.23763438061557 H 0.0 **** 0.06
13225 H 50.61528231213521 23.76880597538662 47.923526547082055 H 0.0 **** 0.06
13226 C 55.63317772842046 96.6209317268283 43.07509047966377 C 0.0 **** -0.24
13227 H 54.81151988785933 95.91751127100352 43.21166991500044 H 0.0 **** 0.06
13228 H 56.33560932055795 96.2206204481767 42.34305996629368 H 0.0 **** 0.06
13229 H 56.14354870734928 96.77161309351789 44.025190128364216 H 0.0 **** 0.06
13230 H 55.240429496177455 97.5731895329107 42.718033367105875 H 0.0 **** 0.06
13231 C 27.008173187308998 98.74976026942558 83.74098813749859 C 0.0 **** -0.24
13232 H 26.917910575316057 99.65868594075204 83.14748449741896 H 0.0 **** 0.06
13233 H 27.598240224684943 98.95592543373101 84.6341021791093 H 0.0 **** 0.06
13234 H 27.50048263557936 97.9775407117465 83.15000487394694 H 0.0 **** 0.06
13235 H 26.015164395431256 98.40580119895787 84.03223479369932 H 0.0 **** 0.06
13236 C 32.67283280145179 26.06595864430777 35.548701994170756 C 0.0 **** -0.24
13237 H 32.29382559447967 25.289096768812172 36.21219275600674 H 0.0 **** 0.06
13238 H 31.97622247237865 26.21000461200265 34.72328716911505 H 0.0 **** 0.06
13239 H 33.64560258905823 25.767077684618087 35.15692396383713 H 0.0 **** 0.06
13240 H 32.77676465953596 26.99894279120737 36.10387645511463 H 0.0 **** 0.06
13241 C 32.35964533414611 38.25051336791162 1.2608756013220104 C 0.0 **** -0.24
13242 H 31.83900641011509 37.293274627773144 1.2393824597582181 H 0.0 **** 0.06
13243 H 32.70259503031293 38.45453598389847 2.2757244539529813 H 0.0 **** 0.06
13244 H 31.679748315182316 39.04024567076601 0.9412886877978197 H 0.0 **** 0.06
13245 H 33.21581869193453 38.213513183433946 0.587984090283098 H 0.0 **** 0.06
13246 C 16.050786993373507 8.188250754903876 25.057631820732922 C 0.0 **** -0.24
13247 H 16.17464626153894 7.596180294171006 24.150649828363328 H 0.0 **** 0.06
13248 H 16.489128656534305 9.175518644376154 24.90813058977278 H 0.0 **** 0.06
13249 H 16.55113735495081 7.6904998489744685 25.887133670873425 H 0.0 **** 0.06
13250 H 14.989059998446379 8.290844852433779 25.280963594426225 H 0.0 **** 0.06
13251 C 80.89873895206404 54.20487062462087 60.57584885409895 C 0.0 **** -0.24
13252 H 80.97069985064849 53.3617980033041 59.88753633211138 H 0.0 **** 0.06
13253 H 81.8781074947351 54.67431178138287 60.67702792384634 H 0.0 **** 0.06
13254 H 80.56241969409268 53.85016587606026 61.549329047247085 H 0.0 **** 0.06
13255 H 80.18524868889301 54.93102131464582 60.18635343506219 H 0.0 **** 0.06
13256 C 94.6651465064192 79.68406287393121 87.25936185964116 C 0.0 **** -0.24
13257 H 94.37858440008361 79.65599347323585 86.20758850841989 H 0.0 **** 0.06
13258 H 94.8321869121936 80.71714958559684 87.56351016435666 H 0.0 **** 0.06
13259 H 95.58194996150274 79.11119742171105 87.40047347208291 H 0.0 **** 0.06
13260 H 93.86924958511437 79.2504066266258 87.86452646113173 H 0.0 **** 0.06
13261 C 74.22156747234294 69.40169551901921 6.782010338714372 C 0.0 **** -0.24
13262 H 73.77611735671508 70.331877993233 7.1343462690230695 H 0.0 **** 0.06
13263 H 73.43121392317931 68.71202385983997 6.48359586967905 H 0.0 **** 0.06
13264 H 74.80999237864569 68.95473789349121 7.5825743993999595 H 0.0 **** 0.06
13265 H 74.86684162819921 69.60759432585196 5.928044996993208 H 0.0 **** 0.06
13266 C 68.60247985487466 17.491240860024362 19.50536275305234 C 0.0 **** -0.24
13267 H 68.58342568668172 17.687700009621707 20.57684189482393 H 0.0 **** 0.06
13268 H 67.59839496160134 17.60874530094047 19.09605337444168 H 0.0 **** 0.06
13269 H 68.9490941212676 16.472721203634023 19.329370870425635 H 0.0 **** 0.06
13270 H 69.27816635604208 18.194978979018302 19.018392202777704 H 0.0 **** 0.06
13271 C 29.669889075746575 94.18995746284142 12.464518177572952 C 0.0 **** -0.24
13272 H 29.274752703355908 93.97390106474293 11.471516777192285 H 0.0 **** 0.06
13273 H 29.219751571353036 95.10839268784125 12.841920948628239 H 0.0 **** 0.06
13274 H 30.751364664723233 94.31127394372189 12.405749918126762 H 0.0 **** 0.06
13275 H 29.432012742675973 93.36597555524133 13.136217857893257 H 0.0 **** 0.06
13276 C 78.11280352956788 6.158349132883771 63.40793280526421 C 0.0 **** -0.24
13277 H 77.70566021057115 5.646157570443364 64.27962482488945 H 0.0 **** 0.06
13278 H 77.73750938006117 7.181419288259846 63.37871576910953 H 0.0 **** 0.06
13279 H 77.80753307702753 5.633352580347349 62.50221238183943 H 0.0 **** 0.06
13280 H 79.20156443169054 6.171410887548461 63.46951213906584 H 0.0 **** 0.06
13281 C 96.97596385319858 93.88764867487212 100.2255280949534 C 0.0 **** -0.24
13282 H 96.33319236445344 93.3227132622289 100.9017297868613 H 0.0 **** 0.06
13283 H 96.72957974376563 93.63425815762213 99.1946144421571 H 0.0 **** 0.06
13284 H 98.01851221199018 93.63890683743809 100.42260487506812 H 0.0 **** 0.06
13285 H 96.82104233002659 94.95500156791269 100.384770085019 H 0.0 **** 0.06
13286 C 9.158318525755732 99.9844337477701 79.95100487065491 C 0.0 **** -0.24
13287 H 9.243535281670162 100.53258305067325 80.88888080692432 H 0.0 **** 0.06
13288 H 8.294871920349578 100.35122182085026 79.39412837127334 H 0.0 **** 0.06
13289 H 9.03022227013183 98.92221556243388 80.16032940502755 H 0.0 **** 0.06
13290 H 10.061522403915504 100.13279275505674 79.3603813446216 H 0.0 **** 0.06
13291 C 70.75991921956245 73.66334405779185 26.647525186165154 C 0.0 **** -0.24
13292 H 71.39661234341695 74.54759219462778 26.61833678131464 H 0.0 **** 0.06
13293 H 71.16263504704027 72.904558487018 25.977027420691314 H 0.0 **** 0.06
13294 H 69.75223222381076 73.93190115972465 26.33032041238178 H 0.0 **** 0.06
13295 H 70.72832903505065 73.27212941340113 27.664077197630093 H 0.0 **** 0.06
13296 C 103.10252246496134 25.62081931454034 64.79748058166967 C 0.0 **** -0.24
13297 H 103.4820881036714 24.75780784750185 65.34487442219046 H 0.0 **** 0.06
13298 H 103.93525775320194 26.262259497885566 64.50880896840886 H 0.0 **** 0.06
13299 H 102.41566553582538 26.18008052214867 65.43308607689681 H 0.0 **** 0.06
13300 H 102.57778790661837 25.281566951203615 63.90418032055692 H 0.0 **** 0.06
13301 C 73.58039997122145 55.85971288849339 64.40155891473158 C 0.0 **** -0.24
13302 H 74.47234064773855 56.29514166184231 63.9496634192446 H 0.0 **** 0.06
13303 H 73.06920349199184 55.23753892139027 63.66636940283074 H 0.0 **** 0.06
13304 H 72.91377150362725 56.65633260434916 64.73106817346805 H 0.0 **** 0.06
13305 H 73.86873777258958 55.248701341038156 65.25721427183736 H 0.0 **** 0.06
13306 C 5.823670172036827 6.602325372389373 90.9073649338941 C 0.0 **** -0.24
13307 H 5.449175633929258 5.761805901441107 90.3222967593499 H 0.0 **** 0.06
13308 H 5.179567831870713 7.468317367195937 90.75251682247278 H 0.0 **** 0.06
13309 H 6.838702465420056 6.841705722199038 90.58998603452879 H 0.0 **** 0.06
13310 H 5.82715908119053 6.336082666205471 91.96440964397125 H 0.0 **** 0.06
13311 C 58.40957927150782 78.90065373897716 3.0899357521152666 C 0.0 **** -0.24
13312 H 57.82036617436589 78.27771605496753 2.417304791484753 H 0.0 **** 0.06
13313 H 58.14692704687786 78.66718936290943 4.122773185345423 H 0.0 **** 0.06
13314 H 58.20023533395849 79.95049574158259 2.8905049798269573 H 0.0 **** 0.06
13315 H 59.46939074875223 78.70363111117246 2.931845505488994 H 0.0 **** 0.06
13316 C 54.82715632809431 63.5037300797063 27.776440399599323 C 0.0 **** -0.24
13317 H 53.74019437305108 63.56109708911836 27.712662389038712 H 0.0 **** 0.06
13318 H 55.15581243724242 63.90659582026882 28.73456211981724 H 0.0 **** 0.06
13319 H 55.268982946517106 64.08530117258327 26.966629173220127 H 0.0 **** 0.06
13320 H 55.141577347480606 62.46369857750602 27.69063393280186 H 0.0 **** 0.06
13321 C 27.41955979725293 47.55416371723095 20.912766786610206 C 0.0 **** -0.24
13322 H 27.41957298848476 46.598779813761894 21.43610261342826 H 0.0 **** 0.06
13323 H 26.702580252051234 47.518401526799835 20.091973080907422 H 0.0 **** 0.06
13324 H 28.416292618122014 47.75148466767587 20.51752253835633 H 0.0 **** 0.06
13325 H 27.139793330353783 48.34798886068643 21.605468913749178 H 0.0 **** 0.06
13326 C 79.01199150147153 38.819025022137055 90.40533871439925 C 0.0 **** -0.24
13327 H 78.38664640024074 38.2364359396243 89.72953823898212 H 0.0 **** 0.06
13328 H 78.45614923365329 39.03596813197015 91.31848273954299 H 0.0 **** 0.06
13329 H 79.29510598216365 39.75415715835652 89.92169528842942 H 0.0 **** 0.06
13330 H 79.90916776786807 38.25158204017458 90.65149119377901 H 0.0 **** 0.06
13331 C 56.45352996874709 71.37280321092521 37.416967600433864 C 0.0 **** -0.24
13332 H 55.43188390837929 71.63754494729255 37.69058783749479 H 0.0 **** 0.06
13333 H 57.04681676446182 72.28097584242562 37.3061472070337 H 0.0 **** 0.06
13334 H 56.44670196839479 70.82573896267041 36.47487477660926 H 0.0 **** 0.06
13335 H 56.88771479795787 70.74803287860607 38.197613126368815 H 0.0 **** 0.06
13336 C 7.016868127187763 69.5027477102638 104.89990365628151 C 0.0 **** -0.24
13337 H 6.469006306517031 70.22433381687222 105.50497284432862 H 0.0 **** 0.06
13338 H 7.448762164552221 70.00715273402707 104.03508517027208 H 0.0 **** 0.06
13339 H 6.337216172706576 68.72094795254873 104.56219493937908 H 0.0 **** 0.06
13340 H 7.813191739370836 69.05857606767881 105.49665158586544 H 0.0 **** 0.06
13341 C 52.585497507555175 41.27773882107749 48.30505538501089 C 0.0 **** -0.24
13342 H 51.911988350039735 40.57316268365986 48.79209717224319 H 0.0 **** 0.06
13343 H 53.4496820978064 40.74294951176745 47.91209074409105 H 0.0 **** 0.06
13344 H 52.918090067433866 42.02287101482375 49.029339984806825 H 0.0 **** 0.06
13345 H 52.06214285942113 41.77487789104708 47.487434695155585 H 0.0 **** 0.06
13346 C 65.8835582795106 29.090436832419584 32.18283777982563 C 0.0 **** -0.24
13347 H 64.93635619648481 28.978281980110467 31.656239910973113 H 0.0 **** 0.06
13348 H 66.59556712830314 29.611382378249743 31.541619353557763 H 0.0 **** 0.06
13349 H 66.27661992879105 28.105934934143363 32.43706490049172 H 0.0 **** 0.06
13350 H 65.72697796556422 29.66562728674222 33.095392660713856 H 0.0 **** 0.06
13351 C 73.91645753839735 28.738915657405762 35.169432724328175 C 0.0 **** -0.24
13352 H 73.72430637683541 29.745799452552554 34.79819851284391 H 0.0 **** 0.06
13353 H 74.71937179098687 28.770037917473623 35.90562356044797 H 0.0 **** 0.06
13354 H 74.20918002354696 28.095703598987406 34.33936063466083 H 0.0 **** 0.06
13355 H 73.01258398711866 28.344602599119362 35.63327607593651 H 0.0 **** 0.06
13356 C 14.310295959025407 26.290042913480818 54.78027510371066 C 0.0 **** -0.24
13357 H 13.236461339337044 26.459579213772543 54.862260100340244 H 0.0 **** 0.06
13358 H 14.77757202972915 26.44561996997075 55.75288794425811 H 0.0 **** 0.06
13359 H 14.733647352240993 26.98849918315932 54.057570901921586 H 0.0 **** 0.06
13360 H 14.492754339770254 25.268543751199047 54.44730777780407 H 0.0 **** 0.06
13361 C 108.83037896562081 82.97847898776345 87.85463379938938 C 0.0 **** -0.24
13362 H 109.01681225606514 84.04834005038363 87.94378400334136 H 0.0 **** 0.06
13363 H 108.550023271526 82.57671316520319 88.82842473225395 H 0.0 **** 0.06
13364 H 109.73358103859913 82.48069651510198 87.50190942776692 H 0.0 **** 0.06
13365 H 108.02122956545375 82.80865197130166 87.145281398424 H 0.0 **** 0.06
13366 C 19.895183494011548 54.978660626088526 71.50722611876928 C 0.0 **** -0.24
13367 H 19.238403438817386 55.34193655422155 70.71749428571769 H 0.0 **** 0.06
13368 H 19.63095463185985 53.95100821115392 71.75580098611918 H 0.0 **** 0.06
13369 H 19.78201972838457 55.60741272518885 72.3913373713053 H 0.0 **** 0.06
13370 H 20.92963818334158 55.01560189859174 71.16536106812217 H 0.0 **** 0.06
13371 C 50.286097748444774 106.88189283975314 88.49529625229593 C 0.0 **** -0.24
13372 H 49.53189043048934 107.59828518481791 88.82165374840767 H 0.0 **** 0.06
13373 H 49.8072708799146 106.08437171314569 87.92751308450826 H 0.0 **** 0.06
13374 H 50.78563842185912 106.45874984211935 89.36709497236876 H 0.0 **** 0.06
13375 H 51.01921678497348 107.38806863279555 87.86603439526404 H 0.0 **** 0.06
13376 C 52.82240477834429 90.40873764864108 46.368285841104466 C 0.0 **** -0.24
13377 H 52.752739150681755 89.83983668692855 47.29667066069297 H 0.0 **** 0.06
13378 H 52.265604815409645 89.89339889549049 45.58503831804143 H 0.0 **** 0.06
13379 H 53.868140719780484 90.49755060956284 46.07470716481811 H 0.0 **** 0.06
13380 H 52.40215957724403 91.40306092568608 46.52057856452669 H 0.0 **** 0.06
13381 C 104.3554747145941 72.28485898411799 66.12198616248955 C 0.0 **** -0.24
13382 H 104.3409551620438 71.19743400598855 66.19908343796703 H 0.0 **** 0.06
13383 H 104.04306503985555 72.71999073500083 67.07098847555625 H 0.0 **** 0.06
13384 H 103.67312190215478 72.60106555216788 65.3335783598603 H 0.0 **** 0.06
13385 H 105.36578808969378 72.6176451447443 65.88450330501934 H 0.0 **** 0.06
13386 C 101.67884599402385 34.66208254833765 83.72565198134964 C 0.0 **** -0.24
13387 H 101.93776944861332 33.60357310875145 83.72676719448133 H 0.0 **** 0.06
13388 H 102.54083063170447 35.24749202543535 84.04737724872143 H 0.0 **** 0.06
13389 H 100.84751404400038 34.83303346490612 84.40974323768661 H 0.0 **** 0.06
13390 H 101.38881022628777 34.963947157882046 82.71956160644325 H 0.0 **** 0.06
13391 C 102.47335970208063 39.7360832780567 95.38205003981103 C 0.0 **** -0.24
13392 H 102.64979840946405 39.434283198065145 96.41493048053073 H 0.0 **** 0.06
13393 H 101.74298270235755 40.54452712976878 95.35947101284899 H 0.0 **** 0.06
13394 H 102.09254714083595 38.88556447812837 94.81558160628657 H 0.0 **** 0.06
13395 H 103.4092366407625 40.07733088599309 94.9391275764581 H 0.0 **** 0.06
13396 C 57.57419786694131 70.60483926581458 77.41387460504731 C 0.0 **** -0.24
13397 H 58.648370867976276 70.7794384416141 77.48320285569395 H 0.0 **** 0.06
13398 H 57.173549339541346 70.40676497380196 78.40711783085364 H 0.0 **** 0.06
13399 H 57.38762931100996 69.74644696789653 76.76853771608052 H 0.0 **** 0.06
13400 H 57.08991910906853 71.48706429544632 76.99499520089665 H 0.0 **** 0.06
13401 C 23.428552854886807 52.08739893769928 79.18366955432487 C 0.0 **** -0.24
13402 H 24.436462621247404 52.34341722391781 78.85619065204469 H 0.0 **** 0.06
13403 H 23.447682845657113 51.12847717949268 79.70136826866408 H 0.0 **** 0.06
13404 H 22.772027918967286 52.01840837277831 78.31621166947252 H 0.0 **** 0.06
13405 H 23.058267537676702 52.85821164815144 79.85896383990251 H 0.0 **** 0.06
13406 C 78.8432934081141 94.77281691591816 57.59281470636992 C 0.0 **** -0.24
13407 H 77.85411612162846 94.35242664031489 57.77200772001311 H 0.0 **** 0.06
13408 H 78.74152027172408 95.77088634524125 57.16483154788247 H 0.0 **** 0.06
13409 H 79.38882512808738 94.13362132257384 56.89791252119153 H 0.0 **** 0.06
13410 H 79.38769950723199 94.83402813029545 58.53429756396625 H 0.0 **** 0.06
13411 C 89.11081218670475 96.1315002967552 50.29498127595812 C 0.0 **** -0.24
13412 H 89.93995427757889 96.45924193541288 50.922490401252475 H 0.0 **** 0.06
13413 H 89.40138550459156 96.19919054144239 49.246408406904045 H 0.0 **** 0.06
13414 H 88.24555301349307 96.7695481017173 50.47524062655679 H 0.0 **** 0.06
13415 H 88.85739380214542 95.09978686244426 50.53712861715338 H 0.0 **** 0.06
13416 C 85.69790801297671 59.239106649679854 91.9565937982884 C 0.0 **** -0.24
13417 H 84.93638144554842 58.69786197185567 91.3959840391343 H 0.0 **** 0.06
13418 H 85.44099699741525 60.298087961463295 91.98837731864887 H 0.0 **** 0.06
13419 H 86.66555805584227 59.11407592497699 91.47028875610306 H 0.0 **** 0.06
13420 H 85.7484584730488 58.84751159562654 92.97256763066616 H 0.0 **** 0.06
13421 C 63.496990491675945 61.70443705084989 55.06875283076977 C 0.0 **** -0.24
13422 H 63.179145451762864 60.66357887307868 55.00653019311315 H 0.0 **** 0.06
13423 H 63.069515123039196 62.26491123560406 54.236586126642095 H 0.0 **** 0.06
13424 H 64.58468224374171 61.75648853251917 55.022146481840025 H 0.0 **** 0.06
13425 H 63.152927137124436 62.13286516203243 56.01010644321542 H 0.0 **** 0.06
13426 C 107.2913544654728 105.11543809092306 81.09559683874036 C 0.0 **** -0.24
13427 H 107.34668670310629 105.27226861740047 82.17289131966848 H 0.0 **** 0.06
13428 H 108.14439966594553 105.59506893021516 80.61432241657548 H 0.0 **** 0.06
13429 H 106.36745891550588 105.54905002979422 80.71336713986818 H 0.0 **** 0.06
13430 H 107.30663002901422 104.04667104511054 80.88360511886867 H 0.0 **** 0.06
13431 C 107.18575006647897 105.80838103493451 77.11953283584631 C 0.0 **** -0.24
13432 H 108.14001168680016 105.93669457748447 77.62942028097507 H 0.0 **** 0.06
13433 H 107.28023989924971 105.02991099443099 76.36267094944617 H 0.0 **** 0.06
13434 H 106.89873223817295 106.74679750955235 76.64333935406017 H 0.0 **** 0.06
13435 H 106.42306068655274 105.52145527413228 77.84384382422593 H 0.0 **** 0.06
13436 C 105.73182573913888 60.190353056856424 37.85373448989483 C 0.0 **** -0.24
13437 H 105.49646946341052 59.582240457947776 36.9799276548116 H 0.0 **** 0.06
13438 H 104.87118229121658 60.811193719241714 38.106033271411945 H 0.0 **** 0.06
13439 H 106.5886917576026 60.82640485620912 37.634532447776685 H 0.0 **** 0.06
13440 H 105.96865159228638 59.53833799628897 38.695543747464576 H 0.0 **** 0.06
13441 C 90.65635540673179 101.63550102118491 91.40068236040702 C 0.0 **** -0.24
13442 H 91.43436485371996 102.18630721492788 90.87181780817822 H 0.0 **** 0.06
13443 H 90.80494155012673 101.7395844086396 92.4758287257254 H 0.0 **** 0.06
13444 H 90.70649600576459 100.58229239371443 91.12603290070903 H 0.0 **** 0.06
13445 H 89.67920350302609 102.03668991333487 91.12828084371206 H 0.0 **** 0.06
13446 C 16.991799719716965 79.08068124476435 80.75245794743029 C 0.0 **** -0.24
13447 H 17.82562372346429 79.59983621777215 80.2795356231303 H 0.0 **** 0.06
13448 H 17.263206926898675 78.81345758658665 81.77387927140785 H 0.0 **** 0.06
13449 H 16.75939242151452 78.17745111046958 80.18892445139176 H 0.0 **** 0.06
13450 H 16.11987240460421 79.73521300681853 80.76662943192048 H 0.0 **** 0.06
13451 C 1.8216730315865792 2.1121511497662198 34.860093852941645 C 0.0 **** -0.24
13452 H 1.8090344463794255 1.2701910437642 35.55304144504538 H 0.0 **** 0.06
13453 H 2.5643580024753483 1.931342714846636 34.08318575339666 H 0.0 **** 0.06
13454 H 2.0750522366632236 3.0232757847397664 35.401755854276786 H 0.0 **** 0.06
13455 H 0.8377593916892643 2.2218495399414877 34.40438664407901 H 0.0 **** 0.06
13456 C 61.87671547749359 45.7572383490583 80.76192043340947 C 0.0 **** -0.24
13457 H 62.70411400605664 45.86032824473142 80.05968398887853 H 0.0 **** 0.06
13458 H 61.514628175638165 46.7465721116169 81.04450393726631 H 0.0 **** 0.06
13459 H 62.21937524422782 45.228706025627105 81.65067723859136 H 0.0 **** 0.06
13460 H 61.06987026295383 45.194912394859216 80.29168411441324 H 0.0 **** 0.06
13461 C 88.1954259404098 31.598936089014252 96.141600144715 C 0.0 **** -0.24
13462 H 88.83171153264486 31.728170615706816 95.26568691878256 H 0.0 **** 0.06
13463 H 87.63231302748133 30.671014276800705 96.0471609098312 H 0.0 **** 0.06
13464 H 87.50375862008363 32.43815170573494 96.21435537750978 H 0.0 **** 0.06
13465 H 88.81459032771146 31.560054498436095 97.03784093144606 H 0.0 **** 0.06
13466 C 87.96751786177742 24.542967850294076 25.973622874586752 C 0.0 **** -0.24
13467 H 87.72257238792275 24.218834396492298 24.961927709854084 H 0.0 **** 0.06
13468 H 87.52072937170959 23.856365520791996 26.692577769895685 H 0.0 **** 0.06
13469 H 87.57739263902013 25.547150678522286 26.137473379515004 H 0.0 **** 0.06
13470 H 89.05058968837108 24.54835573951513 26.100028172960517 H 0.0 **** 0.06
13471 C 18.32825955849657 11.44305762193386 8.544620679358527 C 0.0 **** -0.24
13472 H 18.154191466112422 11.577864377343587 7.4771941995419695 H 0.0 **** 0.06
13473 H 19.120461244123078 10.708696366891445 8.693697668973977 H 0.0 **** 0.06
13474 H 17.41261199189057 11.0903925045871 9.018780660532908 H 0.0 **** 0.06
13475 H 18.625060035295263 12.393538481415533 8.987598622147475 H 0.0 **** 0.06
13476 C 38.36423671279675 93.66613582429461 101.39774992566765 C 0.0 **** -0.24
13477 H 38.04525182593224 94.70864003019649 101.39616592245818 H 0.0 **** 0.06
13478 H 39.450238732110336 93.6189798260771 101.31443838914277 H 0.0 **** 0.06
13479 H 37.9118658658071 93.14592736719023 100.55407250566157 H 0.0 **** 0.06
13480 H 38.05070315057068 93.19235309587113 102.32803187199397 H 0.0 **** 0.06
13481 C 52.30865597565088 92.85323133610456 100.67952149719333 C 0.0 **** -0.24
13482 H 51.79351187999731 92.69636377740645 99.73148825671723 H 0.0 **** 0.06
13483 H 52.98875095415514 92.02152922941258 100.86434385743087 H 0.0 **** 0.06
13484 H 51.57642961797575 92.91028493358755 101.48502153960567 H 0.0 **** 0.06
13485 H 52.874068424071254 93.78354273535587 100.6361939693194 H 0.0 **** 0.06
13486 C 60.848653583765824 65.80768939799087 50.256648740836454 C 0.0 **** -0.24
13487 H 60.09407081287627 65.22242329762474 50.782755505246996 H 0.0 **** 0.06
13488 H 60.669964473137256 66.86937659206886 50.42959501127223 H 0.0 **** 0.06
13489 H 60.78938641120769 65.59908216853476 49.18906070063662 H 0.0 **** 0.06
13490 H 61.83781464171162 65.54048810331649 50.625646882462206 H 0.0 **** 0.06
13491 C 55.21272986497161 42.87328541325104 61.92728591916185 C 0.0 **** -0.24
13492 H 55.03259297262747 43.89008308081975 62.275281656420034 H 0.0 **** 0.06
13493 H 56.148988557225636 42.505546877886616 62.347623775664275 H 0.0 **** 0.06
13494 H 55.27514830522267 42.86734005302384 60.83913314971636 H 0.0 **** 0.06
13495 H 54.39248940579853 42.229220124035095 62.24755683419731 H 0.0 **** 0.06
13496 C 41.84490426285481 33.066757479918635 9.247101444941677 C 0.0 **** -0.24
13497 H 42.55307870270582 33.49322496823527 9.95820365596353 H 0.0 **** 0.06
13498 H 41.708552243169095 33.75483977458359 8.413083026255322 H 0.0 **** 0.06
13499 H 40.88831414684972 32.90186398816857 9.743159264996791 H 0.0 **** 0.06
13500 H 42.23036442856349 32.1167496581744 8.876857652024114 H 0.0 **** 0.06
13501 C 24.65037920637113 76.55809301221655 93.3726107155521 C 0.0 **** -0.24
13502 H 25.13187484633747 76.70154059728907 94.3396394511515 H 0.0 **** 0.06
13503 H 24.803579473358578 75.53145435782159 93.03924209214328 H 0.0 **** 0.06
13504 H 25.083466798156277 77.24446674516375 92.64567051786865 H 0.0 **** 0.06
13505 H 23.581978312767532 76.75368686181645 93.46624009001413 H 0.0 **** 0.06
13506 C 74.97484695638647 50.715313760092535 10.205113287916049 C 0.0 **** -0.24
13507 H 74.82087964917115 50.336546098399744 9.19436009138343 H 0.0 **** 0.06
13508 H 76.04319267622895 50.80525256193137 10.400321564288902 H 0.0 **** 0.06
13509 H 74.53019604860998 50.02554808546614 10.92286935756323 H 0.0 **** 0.06
13510 H 74.50336146231899 51.69335341396835 10.301636504531928 H 0.0 **** 0.06
13511 C 7.1989707454005725 82.75609470410984 100.20913551856478 C 0.0 **** -0.24
13512 H 6.1691696639183675 83.11126632756623 100.23691463722238 H 0.0 **** 0.06
13513 H 7.3864734393135905 82.26067351883052 99.25570092285024 H 0.0 **** 0.06
13514 H 7.360658693767249 82.04927077081021 101.02344002812183 H 0.0 **** 0.06
13515 H 7.878155959723472 83.60117981668606 100.32036252571373 H 0.0 **** 0.06
13516 C 22.887258056586802 65.15041802466556 56.896406924981605 C 0.0 **** -0.24
13517 H 22.112662531634584 65.56596924261436 57.5406761268983 H 0.0 **** 0.06
13518 H 22.930295531244866 65.71880967820363 55.967345266088984 H 0.0 **** 0.06
13519 H 22.655587421377163 64.10887742820012 56.67541206734505 H 0.0 **** 0.06
13520 H 23.851188498524323 65.20978275928871 57.40337129632822 H 0.0 **** 0.06
13521 C 88.31070006596373 19.046047661406277 37.07893549462699 C 0.0 **** -0.24
13522 H 88.8666707378516 19.953652800795 36.842830834083145 H 0.0 **** 0.06
13523 H 88.03967512748493 18.53657235687197 36.154028862353584 H 0.0 **** 0.06
13524 H 87.40652294928184 19.306280845829264 37.629715232961416 H 0.0 **** 0.06
13525 H 88.93138014083533 18.388752694895174 37.687505467568485 H 0.0 **** 0.06
13526 C 29.745242098003985 91.48042005754318 94.25871144628432 C 0.0 **** -0.24
13527 H 29.802476049980186 90.86750361264274 95.15836170058658 H 0.0 **** 0.06
13528 H 30.638306467533 92.10071310122677 94.18454661931067 H 0.0 **** 0.06
13529 H 28.862176516739254 92.11747212196234 94.30798322340559 H 0.0 **** 0.06
13530 H 29.677678742728503 90.83387891337118 93.38329974540129 H 0.0 **** 0.06
13531 C 67.67792947003761 24.264596627141344 104.50539096887779 C 0.0 **** -0.24
13532 H 66.777755544959 24.417656714572303 105.10068029176134 H 0.0 **** 0.06
13533 H 68.44217447763282 23.786645744515937 105.11839373745339 H 0.0 **** 0.06
13534 H 68.04522737294053 25.226834239969577 104.14960471963279 H 0.0 **** 0.06
13535 H 67.44373080196755 23.626255653967007 103.65295581454417 H 0.0 **** 0.06
13536 C 87.2692281772283 51.81541248207006 30.851790362300335 C 0.0 **** -0.24
13537 H 87.05764782471073 51.290030886062596 31.782847704468566 H 0.0 **** 0.06
13538 H 86.41395526658181 52.43506520422835 30.581815126910584 H 0.0 **** 0.06
13539 H 87.45689654246635 51.08966811884508 30.060338166595272 H 0.0 **** 0.06
13540 H 88.1485735847971 52.4459133372678 30.9819908644113 H 0.0 **** 0.06
13541 C 107.24450910901912 100.81559693412457 69.12902139607729 C 0.0 **** -0.24
13542 H 106.81199284149692 101.06093989833505 68.15843938998479 H 0.0 **** 0.06
13543 H 106.82567007890015 101.47468590134015 69.88989490442029 H 0.0 **** 0.06
13544 H 108.32547235544972 100.94693592989634 69.088396826143 H 0.0 **** 0.06
13545 H 107.01325062609823 99.77903387643053 69.37772702293724 H 0.0 **** 0.06
13546 C 101.75249613301317 32.402408900349144 25.349305918987568 C 0.0 **** -0.24
13547 H 102.03893468089527 32.461801896146724 24.29957963856492 H 0.0 **** 0.06
13548 H 102.16036003502975 33.259067417548216 25.88638981753772 H 0.0 **** 0.06
13549 H 102.14652379835579 31.481665034362813 25.781031364725692 H 0.0 **** 0.06
13550 H 100.66569913710592 32.40606426314207 25.43098074338951 H 0.0 **** 0.06
13551 C 69.60414691123707 62.92212900832581 108.81885261355242 C 0.0 **** -0.24
13552 H 69.98935980625936 61.914814334589465 108.97691600148534 H 0.0 **** 0.06
13553 H 68.66628651496075 62.86867831894831 108.26583835313221 H 0.0 **** 0.06
13554 H 70.32991233362229 63.503670743188806 108.24907923911508 H 0.0 **** 0.06
13555 H 69.43151864982673 63.400195933337 109.78292696043411 H 0.0 **** 0.06
13556 C 52.44021442828944 6.833566100419048 28.558816970814405 C 0.0 **** -0.24
13557 H 51.96599318316345 7.424664046541395 27.7760665402688 H 0.0 **** 0.06
13558 H 53.316695762782274 6.327560549362104 28.150676245643666 H 0.0 **** 0.06
13559 H 51.73408143600682 6.091704130152095 28.932566761212342 H 0.0 **** 0.06
13560 H 52.74645018850384 7.488411935662683 29.37464811669713 H 0.0 **** 0.06
13561 C 24.840148720320883 67.83775119875617 13.125599199654985 C 0.0 **** -0.24
13562 H 24.320497372442674 68.10745450720802 12.205547286240716 H 0.0 **** 0.06
13563 H 25.38880047661351 68.70269605079915 13.499724268155475 H 0.0 **** 0.06
13564 H 25.53704429520039 67.02465626237705 12.924112202868827 H 0.0 **** 0.06
13565 H 24.113834964560084 67.51809529043831 13.872537797087602 H 0.0 **** 0.06
13566 C 12.45000150895791 71.07282614928926 78.82464643089796 C 0.0 **** -0.24
13567 H 13.17535897139527 70.26715729688728 78.70792816644386 H 0.0 **** 0.06
13568 H 12.921131370776038 71.91371885716651 79.33598104794609 H 0.0 **** 0.06
13569 H 11.60430728987376 70.7167570650322 79.41286403731326 H 0.0 **** 0.06
13570 H 12.101306786590072 71.39246620471076 77.84327696605163 H 0.0 **** 0.06
13571 C 66.62167628837575 99.64182969589979 94.78944725197691 C 0.0 **** -0.24
13572 H 67.63521019880636 99.61558321130053 95.18830053871365 H 0.0 **** 0.06
13573 H 66.6476812427461 99.44676671600456 93.71719772107681 H 0.0 **** 0.06
13574 H 66.18507016330629 100.62423775829552 94.97021608209401 H 0.0 **** 0.06
13575 H 66.01743653121927 98.87921848678434 95.28213720362099 H 0.0 **** 0.06
13576 C 104.86276613189983 0.48343461223079487 75.51950949493225 C 0.0 **** -0.24
13577 H 104.9902694986957 -0.4798758918997379 75.02680616447248 H 0.0 **** 0.06
13578 H 105.83712857747524 0.9539443078704437 75.65384619595486 H 0.0 **** 0.06
13579 H 104.3941966938835 0.3345251282500783 76.4923129228913 H 0.0 **** 0.06
13580 H 104.23095780088826 1.1247100495091757 74.90584520958737 H 0.0 **** 0.06
13581 C 44.05041270982608 69.30412999499617 7.891466044769118 C 0.0 **** -0.24
13582 H 44.00203999034639 70.03711458963772 7.085998142646986 H 0.0 **** 0.06
13583 H 43.92223735661541 68.30269034065543 7.480002089895038 H 0.0 **** 0.06
13584 H 43.257876404520985 69.50444418792847 8.612619497296123 H 0.0 **** 0.06
13585 H 45.01861738099856 69.37274582467086 8.387220455720694 H 0.0 **** 0.06
13586 C 21.939658126184924 108.88160067233488 15.197217215850145 C 0.0 **** -0.24
13587 H 21.55281205383568 109.82239832646535 15.588164435078411 H 0.0 **** 0.06
13588 H 21.833429515888326 108.10328820783847 15.953252320933117 H 0.0 **** 0.06
13589 H 22.99222125792562 108.99932308128012 14.941840836562932 H 0.0 **** 0.06
13590 H 21.37925604725413 108.60032045090391 14.30573317174337 H 0.0 **** 0.06
13591 C 3.0978315503864167 70.55091554072635 62.4545912541534 C 0.0 **** -0.24
13592 H 3.0502014609167105 70.53052928024817 63.54262092219551 H 0.0 **** 0.06
13593 H 3.0569677136464577 69.53178067793306 62.06956376957436 H 0.0 **** 0.06
13594 H 4.030355527869901 71.02072064114907 62.14150807977825 H 0.0 **** 0.06
13595 H 2.2546477360338315 71.1216735362824 62.06422696420674 H 0.0 **** 0.06
13596 C 13.66774858219074 15.599866868639015 23.75106355409747 C 0.0 **** -0.24
13597 H 14.525006086723721 16.266930678498 23.659306718846437 H 0.0 **** 0.06
13598 H 13.90569281570589 14.796447590518707 24.448877222101856 H 0.0 **** 0.06
13599 H 13.432860736299801 15.175369923182608 22.77519784318224 H 0.0 **** 0.06
13600 H 12.80964003139357 16.160640429892453 24.120511185104988 H 0.0 **** 0.06
13601 C 71.9646285995938 79.62446265548883 92.16213698799007 C 0.0 **** -0.24
13602 H 72.93772815007641 79.48010121944994 92.63219223400463 H 0.0 **** 0.06
13603 H 71.25999553219926 80.01248506057753 92.89800364705269 H 0.0 **** 0.06
13604 H 71.60129236566719 78.67035878973107 91.77897969777953 H 0.0 **** 0.06
13605 H 72.06051954202465 80.3329423120321 91.33969347049356 H 0.0 **** 0.06
13606 C 41.19577862397025 71.85643491835572 83.61200927345025 C 0.0 **** -0.24
13607 H 41.351861761575904 71.31773853935114 84.54642893751272 H 0.0 **** 0.06
13608 H 41.65697851264941 71.30400195153798 82.79291930431334 H 0.0 **** 0.06
13609 H 41.64733914925451 72.84556868914572 83.68358653798963 H 0.0 **** 0.06
13610 H 40.125999247450466 71.95755562402954 83.42570142529364 H 0.0 **** 0.06
13611 C 17.42911085580576 41.73854787967434 51.30360368241793 C 0.0 **** -0.24
13612 H 16.77821091508909 42.00157362424045 52.13691607678169 H 0.0 **** 0.06
13613 H 16.909028785169113 41.923155156851976 50.36322945142439 H 0.0 **** 0.06
13614 H 17.695462979181315 40.68325821375427 51.3701181572782 H 0.0 **** 0.06
13615 H 18.334136256375643 42.34452421133642 51.34400867746285 H 0.0 **** 0.06
13616 C 27.265490401925646 63.42869969106222 94.77149776117011 C 0.0 **** -0.24
13617 H 26.791188777946488 62.498507007975746 94.45966387371755 H 0.0 **** 0.06
13618 H 26.615272929559495 63.951849362482065 95.47314978105874 H 0.0 **** 0.06
13619 H 27.440112240630924 64.0585046913093 93.89872930587296 H 0.0 **** 0.06
13620 H 28.217587441603897 63.20570249820092 95.25477348480467 H 0.0 **** 0.06
13621 C 42.52988762268848 101.2778968314596 57.74666677173701 C 0.0 **** -0.24
13622 H 41.71033696290726 100.5606477674529 57.705262113068784 H 0.0 **** 0.06
13623 H 42.293672140927754 102.05923481811573 58.46924899919904 H 0.0 **** 0.06
13624 H 42.67297068118779 101.72352630196855 56.762344939685306 H 0.0 **** 0.06
13625 H 43.44409758213652 100.76701878040865 58.0492417897043 H 0.0 **** 0.06
13626 C 96.89597391423675 3.79616137943475 73.97043118878467 C 0.0 **** -0.24
13627 H 97.59466134810185 3.5531490554616596 74.77105703732524 H 0.0 **** 0.06
13628 H 96.15258021549958 3.0032177799273256 73.88385660261547 H 0.0 **** 0.06
13629 H 97.43943976475258 3.8898653617901573 73.0301853161165 H 0.0 **** 0.06
13630 H 96.3973462990988 4.738067422960825 74.19799073048246 H 0.0 **** 0.06
13631 C 18.83641913089147 16.278789829611327 53.636814396789674 C 0.0 **** -0.24
13632 H 18.137732419869707 15.948064790169553 52.86781327116429 H 0.0 **** 0.06
13633 H 18.295883910130215 16.454415673089756 54.56741320822487 H 0.0 **** 0.06
13634 H 19.319627596474902 17.20174510336477 53.316177519825615 H 0.0 **** 0.06
13635 H 19.591791842688025 15.509021256840214 53.794463590094516 H 0.0 **** 0.06
13636 C 7.320748974017791 94.51388046236619 76.65460600361284 C 0.0 **** -0.24
13637 H 7.67914521247965 93.87147487154458 75.85007379701719 H 0.0 **** 0.06
13638 H 8.163550275941027 94.82743001031074 77.27109893864345 H 0.0 **** 0.06
13639 H 6.605924748331654 93.96444544856816 77.26771316189708 H 0.0 **** 0.06
13640 H 6.835000691359237 95.3917447177118 76.22888449229205 H 0.0 **** 0.06
13641 C 52.74262704324326 20.08266891459192 81.23977718496465 C 0.0 **** -0.24
13642 H 53.037646841161234 20.506203935207637 80.28008336128931 H 0.0 **** 0.06
13643 H 52.590573097324864 19.008877272724988 81.13131999861218 H 0.0 **** 0.06
13644 H 51.8154844009357 20.5489148400641 81.57248291047645 H 0.0 **** 0.06
13645 H 53.526146918880556 20.266832987231624 81.97397947400722 H 0.0 **** 0.06
13646 C 2.448932449973114 44.08951251508033 10.822876996902032 C 0.0 **** -0.24
13647 H 3.048519231572726 43.308784108036946 11.291358298107166 H 0.0 **** 0.06
13648 H 2.7711215021588202 44.22415124472109 9.79025388198162 H 0.0 **** 0.06
13649 H 2.5791785343036224 45.02436151798957 11.369329403507088 H 0.0 **** 0.06
13650 H 1.3982915533537437 43.80090386294612 10.841600921194392 H 0.0 **** 0.06
13651 C 45.0617334674438 71.09712645385991 99.00550085025718 C 0.0 **** -0.24
13652 H 45.58936210870374 71.92914389285852 99.47162835685423 H 0.0 **** 0.06
13653 H 44.477940715842124 71.46551911790613 98.16139079909432 H 0.0 **** 0.06
13654 H 44.39643352215444 70.63485678423763 99.73392623430863 H 0.0 **** 0.06
13655 H 45.784445586052755 70.36022542644207 98.65335316214566 H 0.0 **** 0.06
13656 C 1.6434988040421432 13.611269480589925 69.29724182563014 C 0.0 **** -0.24
13657 H 1.2025639467483478 12.62918091797799 69.47438154171097 H 0.0 **** 0.06
13658 H 2.582686068381367 13.691580455848623 69.84437643613045 H 0.0 **** 0.06
13659 H 0.9554046430964966 14.384348938242113 69.64105645907374 H 0.0 **** 0.06
13660 H 1.8297757189314847 13.738131450454915 68.23158628499014 H 0.0 **** 0.06
13661 C 94.75010151631597 96.78028808442366 55.39183940727716 C 0.0 **** -0.24
13662 H 94.84801537987374 97.85830527908033 55.52020089199749 H 0.0 **** 0.06
13663 H 93.79697586249478 96.55669640811055 54.9110741977498 H 0.0 **** 0.06
13664 H 94.7883295982769 96.29305220428023 56.36582279754688 H 0.0 **** 0.06
13665 H 95.56549810418113 96.413490694876 54.76968760690852 H 0.0 **** 0.06
13666 C 71.89837236088704 0.7530776065328695 2.092574889113507 C 0.0 **** -0.24
13667 H 71.13946529309388 1.448039040787961 1.7343033588080914 H 0.0 **** 0.06
13668 H 71.5616111978154 0.29671938565891764 3.024741226523787 H 0.0 **** 0.06
13669 H 72.83053763730953 1.291085956466759 2.2662723232519397 H 0.0 **** 0.06
13670 H 72.06100006579825 -0.02378510580371085 1.3460647576246174 H 0.0 **** 0.06
13671 C 15.901660263010388 44.44506762268841 75.78104572846865 C 0.0 **** -0.24
13672 H 16.381525459012725 45.38040893422229 76.06987424229388 H 0.0 **** 0.06
13673 H 16.6550429205767 43.751916148842895 75.40650003014585 H 0.0 **** 0.06
13674 H 15.167046658292168 44.64002534210806 75.00037796721989 H 0.0 **** 0.06
13675 H 15.405217330934235 44.00896998612885 76.64774066601467 H 0.0 **** 0.06
13676 C 78.83108699123667 86.71284251207997 80.47968431666749 C 0.0 **** -0.24
13677 H 78.8006614281457 86.64195995292337 79.39185718358686 H 0.0 **** 0.06
13678 H 77.82596305774814 86.57965706264942 80.88016576736655 H 0.0 **** 0.06
13679 H 79.21137595916652 87.69124484561222 80.76963247036079 H 0.0 **** 0.06
13680 H 79.4858556950413 85.93618580182748 80.87524742971993 H 0.0 **** 0.06
13681 C 91.52683560753579 54.13183054181215 97.97150395317648 C 0.0 **** -0.24
13682 H 91.39033367884274 53.11580985712175 97.60184190585436 H 0.0 **** 0.06
13683 H 91.62068022175079 54.114247010928864 99.05666237521298 H 0.0 **** 0.06
13684 H 90.66592498164874 54.739045589691415 97.69012397835145 H 0.0 **** 0.06
13685 H 92.4303915904714 54.558859547728105 97.53463240166843 H 0.0 **** 0.06
13686 C 74.78271055758967 98.3967669031449 30.931680942744542 C 0.0 **** -0.24
13687 H 74.46324261227022 97.93820330778391 31.86789115433796 H 0.0 **** 0.06
13688 H 74.00205037806768 99.0669265206995 30.57070355921747 H 0.0 **** 0.06
13689 H 74.9657511570723 97.61827365440045 30.19094598951559 H 0.0 **** 0.06
13690 H 75.6995522890357 98.96207678875511 31.098374760936437 H 0.0 **** 0.06
13691 C 68.24101179785612 74.40613540196915 38.47605496382266 C 0.0 **** -0.24
13692 H 68.46577253056518 75.47304332643236 38.493548027898186 H 0.0 **** 0.06
13693 H 67.2535172426065 74.23633288804723 38.90605672133802 H 0.0 **** 0.06
13694 H 68.98927980037695 73.86824362213261 39.05777935715719 H 0.0 **** 0.06
13695 H 68.25563003707504 74.04914117640129 37.447062148892485 H 0.0 **** 0.06
13696 C 107.84793814674917 106.87284051632165 44.938325976013125 C 0.0 **** -0.24
13697 H 108.25286458909952 107.36811383958795 45.82119335295489 H 0.0 **** 0.06
13698 H 108.60607543577522 106.85153693012123 44.154428692104446 H 0.0 **** 0.06
13699 H 106.97429069790228 107.419691322207 44.58459986567922 H 0.0 **** 0.06
13700 H 107.56114512357235 105.85340733565349 45.19456330397506 H 0.0 **** 0.06
13701 C 79.22923850948749 11.52587871498099 74.19690160855657 C 0.0 **** -0.24
13702 H 79.81243792663228 11.746602867482068 73.30199478057324 H 0.0 **** 0.06
13703 H 79.30048397273323 12.363191585381884 74.89119629374272 H 0.0 **** 0.06
13704 H 79.6186691439088 10.625116314494903 74.67113122939054 H 0.0 **** 0.06
13705 H 78.18692877775925 11.370275094993843 73.92068477121842 H 0.0 **** 0.06
13706 C 52.79150233646323 46.05184416946977 58.35279338914128 C 0.0 **** -0.24
13707 H 52.1021366111627 45.97944459465567 57.51181417276747 H 0.0 **** 0.06
13708 H 52.50813828359105 45.32834709092339 59.11745192157091 H 0.0 **** 0.06
13709 H 52.74870379799549 47.058554936025665 58.77100109430039 H 0.0 **** 0.06
13710 H 53.804706403396395 45.84303341589989 58.011671161344466 H 0.0 **** 0.06
13711 C 16.642275311229554 41.33496023467728 14.765647981542884 C 0.0 **** -0.24
13712 H 16.784509539837046 40.46218569998962 15.402058103806866 H 0.0 **** 0.06
13713 H 17.381452043233963 42.09456221003052 15.02064303241113 H 0.0 **** 0.06
13714 H 15.64090087851281 41.73638074489554 14.917722400724827 H 0.0 **** 0.06
13715 H 16.76328766193504 41.045876494794015 13.721719602506369 H 0.0 **** 0.06
13716 C 10.40581413598943 40.51143924087684 9.138378600463893 C 0.0 **** -0.24
13717 H 11.228686887689662 40.18381325135846 8.503227832887172 H 0.0 **** 0.06
13718 H 9.457558501163305 40.266367261715345 8.660466666207727 H 0.0 **** 0.06
13719 H 10.469843128061996 41.5893557719465 9.289309502901435 H 0.0 **** 0.06
13720 H 10.46865022742378 40.00541863871791 10.10299238699817 H 0.0 **** 0.06
13721 C 97.31011213906027 45.844371374769764 40.91640903765983 C 0.0 **** -0.24
13722 H 97.91732118817731 45.969959405652645 41.81272631880438 H 0.0 **** 0.06
13723 H 97.5651292724074 44.89930176100384 40.43493458914753 H 0.0 **** 0.06
13724 H 97.50326755557535 46.66709393279962 40.227524088856484 H 0.0 **** 0.06
13725 H 96.25435369726006 45.8392048649564 41.18937851527724 H 0.0 **** 0.06
13726 C 10.704692556743538 70.87291281541513 3.7885115897343695 C 0.0 **** -0.24
13727 H 10.861980498893786 71.86044654290339 4.223562804667125 H 0.0 **** 0.06
13728 H 11.105719124277897 70.85484149242197 2.7747936723816196 H 0.0 **** 0.06
13729 H 9.638016125769042 70.65451181769032 3.7616943247585084 H 0.0 **** 0.06
13730 H 11.21442337510797 70.12356169834038 4.395091607875415 H 0.0 **** 0.06
13731 C 103.74434462203901 8.693287177599274 89.85817943240825 C 0.0 **** -0.24
13732 H 104.52764418164999 9.449840006746712 89.79948068418263 H 0.0 **** 0.06
13733 H 103.08883673359483 8.782010972839402 88.99195639537707 H 0.0 **** 0.06
13734 H 103.16450719131491 8.841653905379417 90.76955244448375 H 0.0 **** 0.06
13735 H 104.19714543134033 7.702498204803732 89.87119635579674 H 0.0 **** 0.06
13736 C 59.23482861018657 92.08011298610799 29.144500055304263 C 0.0 **** -0.24
13737 H 59.116063093936475 91.96277059185094 28.067672146670446 H 0.0 **** 0.06
13738 H 60.293842580460975 92.03534750250759 29.400283884075606 H 0.0 **** 0.06
13739 H 58.70219756764856 91.27852198962083 29.658232487986254 H 0.0 **** 0.06
13740 H 58.82650075361231 93.04246477301038 29.452636791473708 H 0.0 **** 0.06
13741 C 64.07278585485275 28.945701150735935 21.38201917023224 C 0.0 **** -0.24
13742 H 63.801587833011666 29.83969582965284 21.94349312924666 H 0.0 **** 0.06
13743 H 63.16808125638427 28.46594516424844 21.00685425876233 H 0.0 **** 0.06
13744 H 64.60656848372851 28.255311624098994 22.03465631286562 H 0.0 **** 0.06
13745 H 64.71191465114188 29.222893553513906 20.54447600574062 H 0.0 **** 0.06
13746 C 51.253980237732875 71.45847026271434 96.93601043097968 C 0.0 **** -0.24
13747 H 51.50752731531576 72.50674676201379 96.77754866087572 H 0.0 **** 0.06
13748 H 51.340397593959445 71.22065647765538 97.99738860515674 H 0.0 **** 0.06
13749 H 51.93636073795349 70.82937839147115 96.3647494435414 H 0.0 **** 0.06
13750 H 50.23051237938965 71.27867884062732 96.60664519261138 H 0.0 **** 0.06
13751 C 79.22547585931494 99.8813848435893 107.45858029629994 C 0.0 **** -0.24
13752 H 79.22356798538851 98.97886351767676 108.06890515014396 H 0.0 **** 0.06
13753 H 79.18875212064518 99.60674380061845 106.40357479270858 H 0.0 **** 0.06
13754 H 80.13358521670418 100.45122499893395 107.65506553742864 H 0.0 **** 0.06
13755 H 78.35508289569091 100.48885566904174 107.70640108706459 H 0.0 **** 0.06
13756 C 30.71585972368777 84.07120616499813 91.42410122777082 C 0.0 **** -0.24
13757 H 31.35128663841408 84.05854333406 90.5384985189329 H 0.0 **** 0.06
13758 H 30.72774669159952 85.06861567970901 91.86546831535361 H 0.0 **** 0.06
13759 H 31.08909622929525 83.34859393645178 92.15039248098324 H 0.0 **** 0.06
13760 H 29.69603614610179 83.81099079905499 91.1433831831439 H 0.0 **** 0.06
13761 C 22.043109697872126 48.74335221407932 40.17788412346209 C 0.0 **** -0.24
13762 H 21.8136928839927 49.281292603600264 39.25783415414028 H 0.0 **** 0.06
13763 H 21.999289147515924 49.433073567836715 41.021699952941574 H 0.0 **** 0.06
13764 H 23.044053425417474 48.31647935090092 40.10891953781655 H 0.0 **** 0.06
13765 H 21.316469550183285 47.944523130785456 40.322932421355574 H 0.0 **** 0.06
13766 C 27.38498742793697 8.869947810030212 75.1339978665631 C 0.0 **** -0.24
13767 H 26.500408573676147 8.741055529724463 74.51029369480125 H 0.0 **** 0.06
13768 H 28.08232320773275 8.053449471876675 74.94815086823147 H 0.0 **** 0.06
13769 H 27.09203162396259 8.868176734935972 76.18385196092481 H 0.0 **** 0.06
13770 H 27.863319709398525 9.819074646182642 74.89240867785628 H 0.0 **** 0.06
13771 C 11.130880492714027 40.83999504951839 95.13644366692864 C 0.0 **** -0.24
13772 H 10.967671740941483 41.85057367917318 95.51061286711294 H 0.0 **** 0.06
13773 H 12.200531389478527 40.66111346659329 95.03050422375469 H 0.0 **** 0.06
13774 H 10.644477188938609 40.72931060828358 94.16743147398682 H 0.0 **** 0.06
13775 H 10.70939677798566 40.1207139476316 95.83944302217623 H 0.0 **** 0.06
13776 C 87.69382961541399 69.55548993066441 80.37366472867342 C 0.0 **** -0.24
13777 H 87.88791962339843 69.36396305230869 81.42876773876083 H 0.0 **** 0.06
13778 H 88.3007070933927 70.3974117680994 80.03923498571692 H 0.0 **** 0.06
13779 H 86.639073223835 69.79006850438628 80.2347343578241 H 0.0 **** 0.06
13780 H 87.9484598092555 68.67039958021542 79.79041228398341 H 0.0 **** 0.06
13781 C 87.48143703675896 67.10280429730716 10.856418932817661 C 0.0 **** -0.24
13782 H 86.52766462757454 67.29065879270313 10.364344046101479 H 0.0 **** 0.06
13783 H 87.37070791915434 67.24733230465442 11.93125175535937 H 0.0 **** 0.06
13784 H 88.231389350537 67.79533564005365 10.471737474846918 H 0.0 **** 0.06
13785 H 87.79727864150409 66.07823618496897 10.657883879684078 H 0.0 **** 0.06
13786 C 107.00449386610077 76.32123119118785 27.794633611345787 C 0.0 **** -0.24
13787 H 107.71503901903651 76.67607116137043 28.541682527048295 H 0.0 **** 0.06
13788 H 107.4875584053593 75.57779823719886 27.15954934901849 H 0.0 **** 0.06
13789 H 106.67045877305998 77.16018053178959 27.18436120394429 H 0.0 **** 0.06
13790 H 106.14660487452414 75.8713594533242 28.294651385508246 H 0.0 **** 0.06
13791 C 1.956395029052544 64.46418389215683 97.99071443677633 C 0.0 **** -0.24
13792 H 1.1262977613667857 63.89702410858246 97.57000414346851 H 0.0 **** 0.06
13793 H 1.7640490656416858 65.53091996965856 97.8743913863708 H 0.0 **** 0.06
13794 H 2.877055766988178 64.20133965544414 97.46992218690184 H 0.0 **** 0.06
13795 H 2.0581186061736503 64.225792363811 99.0500376725769 H 0.0 **** 0.06
13796 C 12.42704130643606 4.402394737589518 11.870462265725905 C 0.0 **** -0.24
13797 H 13.43203793887303 4.647908582723119 12.214596853867818 H 0.0 **** 0.06
13798 H 11.713383675032897 5.102874913128474 12.305112943517145 H 0.0 **** 0.06
13799 H 12.17520963363867 3.3881851575471273 12.179419495049444 H 0.0 **** 0.06
13800 H 12.388525966441751 4.472612980318814 10.782793705723748 H 0.0 **** 0.06
13801 C 104.20786278352219 53.577997809416786 67.23929954525823 C 0.0 **** -0.24
13802 H 104.53668071175434 52.87863022541134 68.00790452199575 H 0.0 **** 0.06
13803 H 104.81445743334471 53.44420886983798 66.34372190789949 H 0.0 **** 0.06
13804 H 104.32024538503194 54.59867797146731 67.60533101329062 H 0.0 **** 0.06
13805 H 103.16055015181658 53.38981529746454 67.0008178711418 H 0.0 **** 0.06
13806 C 109.44884549651977 71.59438505385182 92.66001175710166 C 0.0 **** -0.24
13807 H 109.93301094233507 72.55306281559842 92.47314108450885 H 0.0 **** 0.06
13808 H 109.30021814033677 71.46590521472713 93.73301911700071 H 0.0 **** 0.06
13809 H 110.07844465698071 70.79053512904021 92.28104742659463 H 0.0 **** 0.06
13810 H 108.48355788229736 71.57037479097177 92.1547136553392 H 0.0 **** 0.06
13811 C 42.34857669657839 59.99535996113481 29.39887211891046 C 0.0 **** -0.24
13812 H 43.177390960244125 60.690074312643375 29.53543988561143 H 0.0 **** 0.06
13813 H 42.7389071838534 59.00755944217908 29.155477231031817 H 0.0 **** 0.06
13814 H 41.711663422386096 60.345523586764685 28.586107197608662 H 0.0 **** 0.06
13815 H 41.76631008955103 59.93999771854415 30.31870280332818 H 0.0 **** 0.06
13816 C 11.364457697924138 99.64137108907312 49.19465017598171 C 0.0 **** -0.24
13817 H 10.639770145893124 99.79390643245142 49.99620299655575 H 0.0 **** 0.06
13818 H 11.5773501568965 100.59558788577243 48.712911698860296 H 0.0 **** 0.06
13819 H 10.952790711680905 98.94657135825094 48.46177395837597 H 0.0 **** 0.06
13820 H 12.283448508315416 99.23038653898436 49.61055325407054 H 0.0 **** 0.06
13821 C 65.07242301926588 54.21593717118935 25.364257445714827 C 0.0 **** -0.24
13822 H 64.66415379200507 54.78458865449409 26.200095121461544 H 0.0 **** 0.06
13823 H 64.922197823621 53.15122963036134 25.541644264018913 H 0.0 **** 0.06
13824 H 66.13828176304375 54.42340779258609 25.270652259276147 H 0.0 **** 0.06
13825 H 64.56322982432695 54.507089397798666 24.444897563874093 H 0.0 **** 0.06
13826 C 96.32590661967586 33.04394070464497 83.59644125182594 C 0.0 **** -0.24
13827 H 95.55497797283057 33.42052928053744 84.26822090050581 H 0.0 **** 0.06
13828 H 97.30878423851995 33.321663431057516 83.9803405335975 H 0.0 **** 0.06
13829 H 96.18749522933788 33.47547894185482 82.6048239218123 H 0.0 **** 0.06
13830 H 96.25429433979775 31.958053047456417 83.53351631660782 H 0.0 **** 0.06
13831 C 109.02569055768002 78.63283050887821 44.96679443555229 C 0.0 **** -0.24
13832 H 108.45709738632841 77.85272556973328 44.46141051046229 H 0.0 **** 0.06
13833 H 109.4951939522796 79.27920207534993 44.224811109011625 H 0.0 **** 0.06
13834 H 109.79547500759851 78.17554961375626 45.58845346468803 H 0.0 **** 0.06
13835 H 108.35662245827717 79.22333168185526 45.59220076379654 H 0.0 **** 0.06
13836 C 12.551125219024698 63.588687383490765 32.930691878492006 C 0.0 **** -0.24
13837 H 12.6209600586551 62.565041255129984 33.29801263766453 H 0.0 **** 0.06
13838 H 12.371625465754505 63.57745381283968 31.854949538802366 H 0.0 **** 0.06
13839 H 13.48334445888213 64.11397323651829 33.13903519558907 H 0.0 **** 0.06
13840 H 11.727394747165249 64.0984353175665 33.43154023111621 H 0.0 **** 0.06
13841 C 88.04051337948988 30.09197845025298 79.09241713608861 C 0.0 **** -0.24
13842 H 87.43600568038005 30.99691802054167 79.1484853870906 H 0.0 **** 0.06
13843 H 88.9924251906323 30.31988114403792 78.61175698669447 H 0.0 **** 0.06
13844 H 87.5113335621349 29.33671990606331 78.51102644690548 H 0.0 **** 0.06
13845 H 88.22290186218004 29.713678818808532 80.09806502367704 H 0.0 **** 0.06
13846 C 28.03814092368998 76.1467390377311 80.85036519097554 C 0.0 **** -0.24
13847 H 29.070584412458004 76.20860889173707 81.1936979804421 H 0.0 **** 0.06
13848 H 27.374945295524867 76.5340658282654 81.62366614576814 H 0.0 **** 0.06
13849 H 27.786608819257822 75.10614617279236 80.64360206469945 H 0.0 **** 0.06
13850 H 27.922087308564414 76.7369217236058 79.94182307530127 H 0.0 **** 0.06
13851 C 92.51694361080308 22.80564414286306 47.4112623464967 C 0.0 **** -0.24
13852 H 92.11808518040877 23.789636458095856 47.65875166555736 H 0.0 **** 0.06
13853 H 91.7359360761231 22.056096713178192 47.5357521235583 H 0.0 **** 0.06
13854 H 93.35153509745214 22.575219887333333 48.072510799067004 H 0.0 **** 0.06
13855 H 92.8611556135103 22.803773394143093 46.376232132646464 H 0.0 **** 0.06
13856 C 67.18231826695052 37.747284046417704 17.592431867963228 C 0.0 **** -0.24
13857 H 66.6763833526382 38.05779660808783 18.506026757618514 H 0.0 **** 0.06
13858 H 67.72260179406203 38.594661014336914 17.17049485598787 H 0.0 **** 0.06
13859 H 66.44512207420311 37.390640870387415 16.872709484686425 H 0.0 **** 0.06
13860 H 67.88462396859666 36.94483519204214 17.82100672518885 H 0.0 **** 0.06
13861 C 44.44700654772373 24.134892747031365 1.2531678344558372 C 0.0 **** -0.24
13862 H 43.636020196054915 23.40815370140489 1.305420909973634 H 0.0 **** 0.06
13863 H 44.50937153383745 24.5373538984607 0.24116556762083974 H 0.0 **** 0.06
13864 H 45.38820135332139 23.64771738598878 1.5090220818496505 H 0.0 **** 0.06
13865 H 44.254845089141156 24.945198935018645 1.9563454171820354 H 0.0 **** 0.06
13866 C 72.70037361899585 46.968723324142275 90.64849270854654 C 0.0 **** -0.24
13867 H 71.97951754864613 46.158202674025745 90.75748666462883 H 0.0 **** 0.06
13868 H 73.59026882439673 46.59785280535186 90.14065276502856 H 0.0 **** 0.06
13869 H 72.9741959602897 47.34680180246693 91.63394433052551 H 0.0 **** 0.06
13870 H 72.25540156012391 47.77277349673602 90.06184453683349 H 0.0 **** 0.06
13871 C 30.755292145163338 76.24379872792107 104.95033657891199 C 0.0 **** -0.24
13872 H 30.359199759451492 77.13207416797604 104.45838798439125 H 0.0 **** 0.06
13873 H 30.169279889550182 75.37351801195055 104.65323554754013 H 0.0 **** 0.06
13874 H 30.69590637723735 76.37048802531565 106.03160576205404 H 0.0 **** 0.06
13875 H 31.794981383581778 76.09975686253954 104.65695785518999 H 0.0 **** 0.06
13876 C 105.23713579621818 91.65817845291296 67.4951020800285 C 0.0 **** -0.24
13877 H 105.29719820371605 90.86068587493834 66.75444901556467 H 0.0 **** 0.06
13878 H 104.23602246777727 91.67832849927939 67.92719350986556 H 0.0 **** 0.06
13879 H 105.44527406525413 92.61483103040833 67.01469159972038 H 0.0 **** 0.06
13880 H 105.96983706998418 91.47977776148355 68.28204228908878 H 0.0 **** 0.06
13881 C 46.67358512153098 100.30722394790337 76.59457568488693 C 0.0 **** -0.24
13882 H 46.44163452504158 100.84533815340797 77.51315547951589 H 0.0 **** 0.06
13883 H 47.297656721076606 100.93275341154447 75.95555108305041 H 0.0 **** 0.06
13884 H 45.74781837882341 100.06413131453428 76.07278090898416 H 0.0 **** 0.06
13885 H 47.20690364206843 99.38802199439306 76.83708546011812 H 0.0 **** 0.06
13886 C 41.3131809674677 54.68256737006055 41.68917103569993 C 0.0 **** -0.24
13887 H 41.99777613851745 55.49735667460902 41.45356818716681 H 0.0 **** 0.06
13888 H 41.738236721051635 54.06844999123362 42.48340799063226 H 0.0 **** 0.06
13889 H 41.15737825580695 54.07049768814721 40.800633418187545 H 0.0 **** 0.06
13890 H 40.359017937120115 55.09380565666149 42.018138860425154 H 0.0 **** 0.06
13891 C 100.68358271674812 54.24849447577626 89.90512861290347 C 0.0 **** -0.24
13892 H 99.96499460626548 54.20346724109662 90.72342656246269 H 0.0 **** 0.06
13893 H 101.61690242404381 53.779940824709286 90.21479227716355 H 0.0 **** 0.06
13894 H 100.8684471774394 55.289743738846596 89.6417164838474 H 0.0 **** 0.06
13895 H 100.28122849309175 53.721146562783396 89.03944322849344 H 0.0 **** 0.06
13896 C 0.6305086157549624 37.07623164187905 90.84001049763557 C 0.0 **** -0.24
13897 H 1.3937025355769777 36.65199288835295 91.492367286244 H 0.0 **** 0.06
13898 H 0.8089077806251055 36.7525613144768 89.8149943621183 H 0.0 **** 0.06
13899 H 0.6745119908653407 38.16524907613534 90.8910664774645 H 0.0 **** 0.06
13900 H -0.3534321291375022 36.737363988186885 91.16367261866787 H 0.0 **** 0.06
13901 C 98.1747325348821 31.63666682024939 106.53733190218404 C 0.0 **** -0.24
13902 H 98.11039134725358 31.784548590514248 107.61515008584476 H 0.0 **** 0.06
13903 H 97.30937079084009 32.0926964663137 106.05631435404456 H 0.0 **** 0.06
13904 H 98.19153248958767 30.56881265163733 106.31848008319847 H 0.0 **** 0.06
13905 H 99.08695359470778 32.099397690737504 106.16082062859277 H 0.0 **** 0.06
13906 C 106.13877132255311 83.52487261181875 64.49104962772475 C 0.0 **** -0.24
13907 H 105.37610162188273 82.76561601099465 64.66707591999807 H 0.0 **** 0.06
13908 H 105.65870686345535 84.47295122296077 64.24976577556333 H 0.0 **** 0.06
13909 H 106.7726091537245 83.21551616654176 63.65897743087362 H 0.0 **** 0.06
13910 H 106.74868386940756 83.6419327652464 65.38743209256401 H 0.0 **** 0.06
13911 C 85.12054585105363 97.5933031219876 20.21381230052495 C 0.0 **** -0.24
13912 H 84.19617036664147 97.14040991570054 19.85468754063811 H 0.0 **** 0.06
13913 H 84.92327872881253 98.61409414292014 20.539153923544518 H 0.0 **** 0.06
13914 H 85.85603250609722 97.60329625546615 19.408651793927987 H 0.0 **** 0.06
13915 H 85.50757609207395 97.01298529036166 21.051224180164837 H 0.0 **** 0.06
13916 C 91.56112635378457 15.07523635363765 41.68688381680459 C 0.0 **** -0.24
13917 H 91.27539705464326 15.122089023660578 40.636609852896555 H 0.0 **** 0.06
13918 H 91.15653465121294 14.166301670501923 42.133568518603404 H 0.0 **** 0.06
13919 H 91.16560043824946 15.944793191439771 42.210690042279666 H 0.0 **** 0.06
13920 H 92.64818520122441 15.066191245920038 41.76769917323166 H 0.0 **** 0.06
13921 C 47.68273649978818 73.41811335957766 1.7688535715262095 C 0.0 **** -0.24
13922 H 47.212970874540986 73.06526620293499 0.8505905270473963 H 0.0 **** 0.06
13923 H 47.824952396574076 72.57788177576623 2.449566771813072 H 0.0 **** 0.06
13924 H 47.04366696395681 74.16432685534761 2.2405519843552932 H 0.0 **** 0.06
13925 H 48.649174701654715 73.8634564346973 1.533076978335571 H 0.0 **** 0.06
13926 C 72.9050949984616 93.85607220462845 14.539433713289839 C 0.0 **** -0.24
13927 H 72.80308771924246 94.8428045137365 14.991980689039053 H 0.0 **** 0.06
13928 H 72.46992378652641 93.8687464619772 13.539846161883872 H 0.0 **** 0.06
13929 H 72.38669572725433 93.12030776763487 15.153019629448224 H 0.0 **** 0.06
13930 H 73.96183146051845 93.5951807774533 14.472585886660752 H 0.0 **** 0.06
13931 C 56.02266015008531 88.4384709478507 8.425245904830957 C 0.0 **** -0.24
13932 H 56.336598434792116 89.43322101857473 8.741993326206815 H 0.0 **** 0.06
13933 H 55.92989210323862 87.79115608489593 9.297667507435806 H 0.0 **** 0.06
13934 H 56.763651429045346 88.02422964006905 7.741727862061298 H 0.0 **** 0.06
13935 H 55.0597634194832 88.50548982773432 7.918951312738061 H 0.0 **** 0.06
13936 C 79.13098410236739 20.091635979456456 69.94990050185683 C 0.0 **** -0.24
13937 H 78.20479014221803 20.4999933175509 70.35464352041109 H 0.0 **** 0.06
13938 H 79.11704808658246 20.168788990456267 68.86309968152256 H 0.0 **** 0.06
13939 H 79.22280013945868 19.045040562748422 70.239948262305 H 0.0 **** 0.06
13940 H 79.9771949244654 20.653148437466573 70.34375299638396 H 0.0 **** 0.06
13941 C 76.55250360713791 61.56289894755909 21.589484723607598 C 0.0 **** -0.24
13942 H 76.18670500960786 60.93087017288201 20.780225877104584 H 0.0 **** 0.06
13943 H 75.71618763276325 61.861147135219966 22.223598743744276 H 0.0 **** 0.06
13944 H 77.02575478025364 62.45035314618784 21.171088785276226 H 0.0 **** 0.06
13945 H 77.2789759194402 61.00870263186317 22.182926578589445 H 0.0 **** 0.06
13946 C 103.7117686665232 99.85701157571691 70.26161479511177 C 0.0 **** -0.24
13947 H 104.12813334256379 100.53066373701142 69.51344968849125 H 0.0 **** 0.06
13948 H 103.11125583159384 100.42741261556114 70.96976083903687 H 0.0 **** 0.06
13949 H 104.52305491754569 99.35746639173533 70.79127704582811 H 0.0 **** 0.06
13950 H 103.08517824722519 99.11213046733815 69.77122266987601 H 0.0 **** 0.06
13951 C 60.41530297296998 55.460847625003964 53.08003513801896 C 0.0 **** -0.24
13952 H 60.50005219530283 55.90693716251357 52.08876393820884 H 0.0 **** 0.06
13953 H 61.36268361640458 55.568942970700334 53.60986555126675 H 0.0 **** 0.06
13954 H 60.171113072813 54.40343863966544 52.98241161312808 H 0.0 **** 0.06
13955 H 59.62682092773673 55.965715569226404 53.63916333613997 H 0.0 **** 0.06
13956 C 27.54260265401217 11.000118064004086 88.10202678762667 C 0.0 **** -0.24
13957 H 27.531779921393245 9.942485053904933 87.83903033078563 H 0.0 **** 0.06
13958 H 26.686529537423976 11.496875709926996 87.64587384846952 H 0.0 **** 0.06
13959 H 28.464087224786873 11.454663773813692 87.73823117691698 H 0.0 **** 0.06
13960 H 27.489722694589318 11.104066681305223 89.18561307457252 H 0.0 **** 0.06
13961 C 95.89002335689301 69.55249781287364 8.635407222551066 C 0.0 **** -0.24
13962 H 95.85785679961816 68.46419815016498 8.589309576306789 H 0.0 **** 0.06
13963 H 96.85126067725035 69.86938778933057 9.04084211667012 H 0.0 **** 0.06
13964 H 95.08765686687619 69.91319181217852 9.278885824122113 H 0.0 **** 0.06
13965 H 95.76522332352245 69.96168650361017 7.6327974095962645 H 0.0 **** 0.06
13966 C 39.1168742795102 61.75461192486567 50.15726895785406 C 0.0 **** -0.24
13967 H 39.07689623195091 62.17334193780478 51.1627811604796 H 0.0 **** 0.06
13968 H 38.999167253776136 60.6725489651311 50.20951489560093 H 0.0 **** 0.06
13969 H 40.07712890731108 61.99493663451494 49.70221963282745 H 0.0 **** 0.06
13970 H 38.31281481040776 62.179236440590174 49.55564092710125 H 0.0 **** 0.06
13971 C 107.24376257118308 92.17478411902181 81.14346995936505 C 0.0 **** -0.24
13972 H 106.18690036838001 92.40812076470039 81.27034441539297 H 0.0 **** 0.06
13973 H 107.35400246734702 91.12606943792882 80.8664978049043 H 0.0 **** 0.06
13974 H 107.77256814303365 92.362982672551 82.0779162349556 H 0.0 **** 0.06
13975 H 107.66213381500597 92.80389788654921 80.35689618453043 H 0.0 **** 0.06
13976 C 6.986034104057524 35.82796136904727 105.69454603685381 C 0.0 **** -0.24
13977 H 6.720280740305654 35.76938522600391 104.63900074892865 H 0.0 **** 0.06
13978 H 7.799091739265073 36.54197287150099 105.8257699643483 H 0.0 **** 0.06
13979 H 7.304041201574101 34.84563273783677 106.0440110788499 H 0.0 **** 0.06
13980 H 6.118911221781586 36.155680689267015 106.26921193012049 H 0.0 **** 0.06
13981 C 83.47640899871226 27.921871234309208 81.16361502886889 C 0.0 **** -0.24
13982 H 82.86670802597202 28.68118690728582 81.6552087513353 H 0.0 **** 0.06
13983 H 83.82599386105058 28.30298039631043 80.20456390879951 H 0.0 **** 0.06
13984 H 82.87867525484383 27.024927633796068 81.00320186326076 H 0.0 **** 0.06
13985 H 84.33205631892416 27.680554773295995 81.79359824284921 H 0.0 **** 0.06
13986 C 42.59352578711708 9.494597651251297 84.96669330484096 C 0.0 **** -0.24
13987 H 43.586308854759146 9.53366318966141 84.51882780150157 H 0.0 **** 0.06
13988 H 42.548600350435336 10.182746949067734 85.81134717314586 H 0.0 **** 0.06
13989 H 42.39064514935869 8.481095683214335 85.3126948496708 H 0.0 **** 0.06
13990 H 41.84825699911869 9.781862609978191 84.22488258318441 H 0.0 **** 0.06
13991 C 91.3250440411338 63.591998426115055 58.70482760779663 C 0.0 **** -0.24
13992 H 90.74259500147163 64.49690791793955 58.53028301610857 H 0.0 **** 0.06
13993 H 90.65618359563898 62.78164298995958 58.99707014736032 H 0.0 **** 0.06
13994 H 92.04768535675635 63.77220525474593 59.50025633244206 H 0.0 **** 0.06
13995 H 91.85104394199625 63.31694398224033 57.79080955351566 H 0.0 **** 0.06
13996 C 33.20277536941407 70.33431916909996 77.07794085575615 C 0.0 **** -0.24
13997 H 33.01016524934698 70.56530424081154 76.03022376385368 H 0.0 **** 0.06
13998 H 33.002385846985476 69.27774905195531 77.25926529765226 H 0.0 **** 0.06
13999 H 32.5538025320061 70.9412155942207 77.70835563177317 H 0.0 **** 0.06
14000 H 34.2444287316944 70.55243537755649 77.312315402814 H 0.0 **** 0.06
14001 C 92.0164757046585 33.29640537366703 74.07885126954136 C 0.0 **** -0.24
14002 H 91.63711830983871 34.31057122881427 73.950070469428 H 0.0 **** 0.06
14003 H 93.10464937300941 33.32237706120975 74.15143569978011 H 0.0 **** 0.06
14004 H 91.72360252075381 32.688383194003535 73.22324904788712 H 0.0 **** 0.06
14005 H 91.60149032435432 32.866316438393625 74.98966158950071 H 0.0 **** 0.06
14006 C 23.80959434064127 22.354679161216183 24.14404227950979 C 0.0 **** -0.24
14007 H 23.147519711229023 22.939501412894145 23.50420084264499 H 0.0 **** 0.06
14008 H 23.215727543684466 21.676462058957867 24.757103999685455 H 0.0 **** 0.06
14009 H 24.37695448000227 23.025592469698296 24.788459557467206 H 0.0 **** 0.06
14010 H 24.496206466321553 21.777923783994424 23.52516358616947 H 0.0 **** 0.06
14011 C 33.0844069162769 34.60231626996094 18.166537560769893 C 0.0 **** -0.24
14012 H 33.33575439058972 35.28850030899349 18.97538351808322 H 0.0 **** 0.06
14013 H 33.9997158739375 34.26381908415698 17.680885383980296 H 0.0 **** 0.06
14014 H 32.45499817903429 35.11435098952167 17.43950256028229 H 0.0 **** 0.06
14015 H 32.54876171223351 33.74470420798647 18.572105767468596 H 0.0 **** 0.06
14016 C 101.1558435836762 73.52109881705604 77.94600173015226 C 0.0 **** -0.24
14017 H 100.50017374627025 72.69453263669976 78.21822449446097 H 0.0 **** 0.06
14018 H 101.39796979006933 74.10176744713698 78.83651604275138 H 0.0 **** 0.06
14019 H 100.6528233747972 74.16025983157215 77.22025815414827 H 0.0 **** 0.06
14020 H 102.07373863038895 73.12740760409548 77.50879605355448 H 0.0 **** 0.06
14021 C 94.12216933513514 31.48702160710934 77.4533267324507 C 0.0 **** -0.24
14022 H 94.4732902207484 30.835662681928028 78.25437017272947 H 0.0 **** 0.06
14023 H 93.20229317257187 31.981458515737643 77.76544345741831 H 0.0 **** 0.06
14024 H 93.931646892579 30.892511463181734 76.55972516630055 H 0.0 **** 0.06
14025 H 94.88293334110033 32.23635242138869 77.23494103278574 H 0.0 **** 0.06
14026 C 10.935614858562275 24.145509244248558 24.27324847131652 C 0.0 **** -0.24
14027 H 11.158595083635333 25.12145021830139 24.70415900257248 H 0.0 **** 0.06
14028 H 11.700537269578135 23.43111153389674 24.57881273040755 H 0.0 **** 0.06
14029 H 10.924413861005817 24.222910508060465 23.18599944211212 H 0.0 **** 0.06
14030 H 9.960634758232743 23.806751137727076 24.62398145402628 H 0.0 **** 0.06
14031 C 43.82356188860575 81.28321426429763 108.14764042956293 C 0.0 **** -0.24
14032 H 44.36551895004345 80.60973294571521 107.48236123327254 H 0.0 **** 0.06
14033 H 43.50731621948739 80.7368943992939 109.03597151690582 H 0.0 **** 0.06
14034 H 42.94902424809982 81.67742428609237 107.63074566031676 H 0.0 **** 0.06
14035 H 44.475061121563726 82.10661892820939 108.43946460218675 H 0.0 **** 0.06
14036 C 59.327086616151234 109.37328296124771 47.10947468129947 C 0.0 **** -0.24
14037 H 58.59436742290371 110.11534581577277 46.79456660310025 H 0.0 **** 0.06
14038 H 60.11197370358498 109.29462102231228 46.355675942326016 H 0.0 **** 0.06
14039 H 58.83806397707669 108.4064810916794 47.227897041624736 H 0.0 **** 0.06
14040 H 59.76603469508966 109.67766210295142 48.06057240231547 H 0.0 **** 0.06
14041 C 91.77584641254577 85.15901516468313 90.66674733342688 C 0.0 **** -0.24
14042 H 91.21361971232636 85.53282594207417 91.52210952142093 H 0.0 **** 0.06
14043 H 91.88546589870543 84.07700718374394 90.74797677925415 H 0.0 **** 0.06
14044 H 92.76136864381976 85.6240737142906 90.64849004012973 H 0.0 **** 0.06
14045 H 91.24223892619409 85.40234340685782 89.74719453408625 H 0.0 **** 0.06
14046 C 21.225381434392006 69.23202727736725 47.20651588310171 C 0.0 **** -0.24
14047 H 20.98705561453201 69.89042480547221 48.04166038831082 H 0.0 **** 0.06
14048 H 21.244165704149054 69.8095903102581 46.28239687078465 H 0.0 **** 0.06
14049 H 20.46804984264486 68.45106206888755 47.13244761524396 H 0.0 **** 0.06
14050 H 22.202425473272797 68.77681910608146 47.3709463184975 H 0.0 **** 0.06
14051 C 3.5462867255619983 23.596632598052075 47.56841407311984 C 0.0 **** -0.24
14052 H 4.463094504604067 24.112770325202835 47.28286508506133 H 0.0 **** 0.06
14053 H 3.6269300659351664 23.258853883382695 48.601797870940544 H 0.0 **** 0.06
14054 H 3.394153200849834 22.737630608439922 46.91504141756167 H 0.0 **** 0.06
14055 H 2.701005653092311 24.27966720961051 47.474480169016886 H 0.0 **** 0.06
14056 C 91.89312453863897 39.37831846867394 93.69391231295904 C 0.0 **** -0.24
14057 H 92.89273823976055 39.62334951745038 94.05121336109264 H 0.0 **** 0.06
14058 H 91.15223503696404 39.887870211502076 94.3095295669346 H 0.0 **** 0.06
14059 H 91.7390131505168 38.30091163188362 93.75675395008423 H 0.0 **** 0.06
14060 H 91.78914207940267 39.70057323980927 92.65762451688191 H 0.0 **** 0.06
14061 C 24.62064217294754 29.233536020024445 53.46477950836244 C 0.0 **** -0.24
14062 H 24.969859826069584 28.33219122433534 53.968494163133016 H 0.0 **** 0.06
14063 H 23.533594882384005 29.208114582150863 53.38858368849949 H 0.0 **** 0.06
14064 H 25.053620766137477 29.282594368567985 52.465213740383305 H 0.0 **** 0.06
14065 H 24.92521068801531 30.110030983869642 54.036156293257065 H 0.0 **** 0.06
14066 C 81.12343903782175 96.07647329924808 41.480754894148504 C 0.0 **** -0.24
14067 H 81.80580655836125 95.70060547529978 40.71701284785294 H 0.0 **** 0.06
14068 H 80.87965759359915 97.11694884894168 41.26852848305565 H 0.0 **** 0.06
14069 H 81.5987316900148 96.00508239372729 42.45879378387929 H 0.0 **** 0.06
14070 H 80.21105154067884 95.48020364858952 41.47634837583962 H 0.0 **** 0.06
14071 C 104.82013875387915 67.93128607534098 0.3160056486383951 C 0.0 **** -0.24
14072 H 103.74961870751288 67.77474526240684 0.4499858176821476 H 0.0 **** 0.06
14073 H 105.36134069017287 67.04373885876964 0.6461106932442533 H 0.0 **** 0.06
14074 H 105.13827389553725 68.7919522606145 0.9041209428529839 H 0.0 **** 0.06
14075 H 105.03022223792962 68.11423315401987 -0.738331686097979 H 0.0 **** 0.06
14076 C 22.254195273478018 28.991561743555167 60.44634218007485 C 0.0 **** -0.24
14077 H 21.606913842236338 28.160343927713598 60.167870418407176 H 0.0 **** 0.06
14078 H 21.791049023170206 29.55606197609768 61.25645264666349 H 0.0 **** 0.06
14079 H 22.39877909090635 29.644521847763883 59.5858641358231 H 0.0 **** 0.06
14080 H 23.21874240204386 28.60613165228139 60.77681206615972 H 0.0 **** 0.06
14081 C 82.72674844867026 99.14755804504154 84.69834596458594 C 0.0 **** -0.24
14082 H 83.79920890414911 99.03858486185999 84.54061764827952 H 0.0 **** 0.06
14083 H 82.52224097302934 100.12514113758459 85.13665057014 H 0.0 **** 0.06
14084 H 82.37653256368009 98.3671508721635 85.3729897807936 H 0.0 **** 0.06
14085 H 82.20888084142399 99.06180127930622 83.7431037030741 H 0.0 **** 0.06
14086 C 4.952107188627068 20.79449215800372 89.01925599063296 C 0.0 **** -0.24
14087 H 4.919359022337474 21.09348345976838 87.97100378730619 H 0.0 **** 0.06
14088 H 3.9378948177405135 20.75783011547759 89.41798405202472 H 0.0 **** 0.06
14089 H 5.539825366911941 21.517506023531553 89.58373724985037 H 0.0 **** 0.06
14090 H 5.410866538165806 19.80935694287689 89.10073178495094 H 0.0 **** 0.06
14091 C 67.35910343949872 63.223770554797625 63.23429107770292 C 0.0 **** -0.24
14092 H 66.4793955745353 62.795754956017106 63.71419267959169 H 0.0 **** 0.06
14093 H 67.95116469690998 62.42703776584136 62.785410102433275 H 0.0 **** 0.06
14094 H 67.95930571890267 63.748371907405016 63.97839494099739 H 0.0 **** 0.06
14095 H 67.04595949985655 63.924829922708966 62.46007305841391 H 0.0 **** 0.06
14096 C 93.0554053711023 85.3702258490737 39.5570400603894 C 0.0 **** -0.24
14097 H 92.86223216422323 85.50782163073613 38.49283687971578 H 0.0 **** 0.06
14098 H 92.55203198186432 86.15431451961788 40.122155998040604 H 0.0 **** 0.06
14099 H 94.12911013172697 85.42179550466227 39.74023003937199 H 0.0 **** 0.06
14100 H 92.67950310308865 84.39618503724375 39.8703288254978 H 0.0 **** 0.06
14101 C 65.89448060910911 7.542548913740859 69.22136525653943 C 0.0 **** -0.24
14102 H 66.89256005475829 7.88289618757284 69.497171375005 H 0.0 **** 0.06
14103 H 65.64996409016953 7.90378955936626 68.22214517966364 H 0.0 **** 0.06
14104 H 65.16865347983764 7.929054762424698 69.93681830867081 H 0.0 **** 0.06
14105 H 65.86795090504273 6.452504294960448 69.23018628946025 H 0.0 **** 0.06
14106 C 23.975080870687066 6.269918571178328 75.95853808140356 C 0.0 **** -0.24
14107 H 24.41387833112111 7.179840037614607 75.55003527735556 H 0.0 **** 0.06
14108 H 23.016637360103715 6.079363095469523 75.47354879082715 H 0.0 **** 0.06
14109 H 23.821820505822302 6.3898014906501714 77.03125390265524 H 0.0 **** 0.06
14110 H 24.6464518297809 5.4298886079772295 75.77949457676408 H 0.0 **** 0.06
14111 C 22.770136117455138 57.28921772921814 70.60072834567865 C 0.0 **** -0.24
14112 H 23.05774581752479 57.1558374953309 71.64398060459217 H 0.0 **** 0.06
14113 H 21.748643400430637 56.93674072464552 70.45885008979712 H 0.0 **** 0.06
14114 H 23.443906476005225 56.71731973267907 69.96277298299259 H 0.0 **** 0.06
14115 H 22.83086885598027 58.34446470867505 70.33913306767869 H 0.0 **** 0.06
14116 C 24.291160544618446 69.67395332330796 36.771137557103316 C 0.0 **** -0.24
14117 H 24.872653204563054 69.01793380256936 37.41833188740725 H 0.0 **** 0.06
14118 H 24.310685287905297 69.2880815290211 35.75172271267121 H 0.0 **** 0.06
14119 H 24.72019221762642 70.67530468701733 36.789660094709234 H 0.0 **** 0.06
14120 H 23.260695358454242 69.71320584135333 37.1252471975622 H 0.0 **** 0.06
14121 C 26.085079228475763 72.1622563792057 1.6497860991248103 C 0.0 **** -0.24
14122 H 25.029502264180223 72.43144442028182 1.6806067438788546 H 0.0 **** 0.06
14123 H 26.35871683734456 71.88048819089336 0.6320449199558311 H 0.0 **** 0.06
14124 H 26.265623587213895 71.32150180842358 2.319853533810999 H 0.0 **** 0.06
14125 H 26.68675647725007 73.0139993358453 1.965094246684032 H 0.0 **** 0.06
14126 C 20.408096179982806 69.60912129813124 66.20556482562529 C 0.0 **** -0.24
14127 H 20.718332723605158 70.31207571980133 65.43203831494941 H 0.0 **** 0.06
14128 H 21.135112944129844 69.62083842374537 67.01859882050775 H 0.0 **** 0.06
14129 H 20.351505478167155 68.60613438209504 65.78290705827226 H 0.0 **** 0.06
14130 H 19.430072584068967 69.89820126392121 66.58751034186665 H 0.0 **** 0.06
14131 C 49.777458681287015 55.35422169038074 27.334709559799748 C 0.0 **** -0.24
14132 H 49.633184432263675 54.44173142300497 26.756523344967437 H 0.0 **** 0.06
14133 H 50.553111840922284 55.19012002125396 28.082798917123725 H 0.0 **** 0.06
14134 H 48.844609383368265 55.62007532545343 27.830521849603194 H 0.0 **** 0.06
14135 H 50.07892469459104 56.16179936917092 26.668889528917724 H 0.0 **** 0.06
14136 C 65.296709057373 59.276583970031055 17.21341816763126 C 0.0 **** -0.24
14137 H 65.93588165651346 59.21947231229815 16.332180104261496 H 0.0 **** 0.06
14138 H 65.54663010224277 58.46393577142107 17.89689408806881 H 0.0 **** 0.06
14139 H 64.2528756230995 59.19066497265051 16.911639196097493 H 0.0 **** 0.06
14140 H 65.45235766344712 60.23289106507343 17.713842155678577 H 0.0 **** 0.06
14141 C 5.830953503441636 56.81748150477051 107.02298384867741 C 0.0 **** -0.24
14142 H 5.588769445705314 56.066198441102586 107.77475077413679 H 0.0 **** 0.06
14143 H 5.240596624234154 56.63578819774958 106.12466587556247 H 0.0 **** 0.06
14144 H 6.891480569752417 56.75728726991052 106.77899235770795 H 0.0 **** 0.06
14145 H 5.603723029583604 57.80914415612046 107.41392035116539 H 0.0 **** 0.06
14146 C 42.98559489118048 20.967039147585126 52.2668812441118 C 0.0 **** -0.24
14147 H 42.45661158652939 20.655912032898414 51.36652109168162 H 0.0 **** 0.06
14148 H 42.27008206424438 21.34751445212686 52.99584818504215 H 0.0 **** 0.06
14149 H 43.70101723671277 21.750757837435913 52.01555515943329 H 0.0 **** 0.06
14150 H 43.516421811665055 20.11310080083979 52.689191562228956 H 0.0 **** 0.06
14151 C 104.15853544329507 86.35163367400514 107.40231102653621 C 0.0 **** -0.24
14152 H 103.46094806259242 85.8992533629236 106.69631821991248 H 0.0 **** 0.06
14153 H 103.65929745250749 87.16090848708772 107.9362919514025 H 0.0 **** 0.06
14154 H 105.01708844978037 86.74785096497159 106.86098819436091 H 0.0 **** 0.06
14155 H 104.49334266081843 85.59775892619191 108.1150044161077 H 0.0 **** 0.06
14156 C 109.36670181414657 69.40389774142335 29.1745796805802 C 0.0 **** -0.24
14157 H 110.12203190936299 68.89282929607083 29.770940576356026 H 0.0 **** 0.06
14158 H 109.85508408856245 70.08307496685063 28.474876902776906 H 0.0 **** 0.06
14159 H 108.70693804916557 69.97139821824953 29.831813205231484 H 0.0 **** 0.06
14160 H 108.78275320949533 68.66828848452235 28.620688037956008 H 0.0 **** 0.06
14161 C 41.22854238026014 58.50382294884116 7.655829440038588 C 0.0 **** -0.24
14162 H 40.76253491778044 59.36396704917388 7.174967670229961 H 0.0 **** 0.06
14163 H 40.911480269838876 58.454895980002675 8.697102981009607 H 0.0 **** 0.06
14164 H 42.312734162070115 58.60519587911966 7.608983258936263 H 0.0 **** 0.06
14165 H 40.92573736423617 57.59282034918249 7.140353726901282 H 0.0 **** 0.06
14166 C 41.42579071478494 17.5391074868791 72.37903022704504 C 0.0 **** -0.24
14167 H 40.91630936399527 17.938976943990955 71.50197603091567 H 0.0 **** 0.06
14168 H 42.479177613454006 17.38369667502709 72.14576130716858 H 0.0 **** 0.06
14169 H 40.97206019382252 16.589449352885193 72.66167820936104 H 0.0 **** 0.06
14170 H 41.335363991873045 18.244891795473965 73.2045617930104 H 0.0 **** 0.06
14171 C 1.7112050300206931 74.94497886775929 61.92008574915225 C 0.0 **** -0.24
14172 H 2.132840746070741 73.97137975558573 61.66795282477071 H 0.0 **** 0.06
14173 H 1.456981737439932 75.4782205273545 61.00394344429789 H 0.0 **** 0.06
14174 H 2.44216989109934 75.52113633243329 62.4866206269965 H 0.0 **** 0.06
14175 H 0.8124732082684432 74.80647754681877 62.52106608063336 H 0.0 **** 0.06
14176 C 50.26756056605325 90.78802543478463 56.80866669654921 C 0.0 **** -0.24
14177 H 49.80886952133653 89.95262761549981 57.33823340938676 H 0.0 **** 0.06
14178 H 49.76291639415433 91.7144803805983 57.084293978776145 H 0.0 **** 0.06
14179 H 50.17575426054913 90.63044631489541 55.73342051471536 H 0.0 **** 0.06
14180 H 51.32139583236676 90.85324603081102 57.077944119527274 H 0.0 **** 0.06
14181 C 27.35303554942027 16.7620712392349 31.140613648867657 C 0.0 **** -0.24
14182 H 26.33797824171654 17.036942017618372 31.428809108029554 H 0.0 **** 0.06
14183 H 27.342367893525562 16.337449530557137 30.136261359870048 H 0.0 **** 0.06
14184 H 27.74148285151429 16.025174073026108 31.842613687619803 H 0.0 **** 0.06
14185 H 27.987124276975067 17.648091965227565 31.155431992307342 H 0.0 **** 0.06
14186 C 86.209271114563 70.76875446660523 89.72976437056022 C 0.0 **** -0.24
14187 H 86.39255909345346 71.72562031790346 90.21790481274854 H 0.0 **** 0.06
14188 H 85.14687499201742 70.67482542342587 89.50287955243442 H 0.0 **** 0.06
14189 H 86.5131237434768 69.95847390732959 90.39289247592603 H 0.0 **** 0.06
14190 H 86.78452662930431 70.7160982177618 88.80538064113156 H 0.0 **** 0.06
14191 C 78.82149507319332 94.85261193588498 83.03154582169549 C 0.0 **** -0.24
14192 H 78.68283514963704 94.58826576683359 81.98301236352012 H 0.0 **** 0.06
14193 H 79.17456003197452 95.88152551615927 83.1022696034712 H 0.0 **** 0.06
14194 H 79.55605070845687 94.18432594710644 83.48040515039207 H 0.0 **** 0.06
14195 H 77.87269121115976 94.75676043572061 83.55854917784052 H 0.0 **** 0.06
14196 C 71.2026094214486 86.12904825734095 34.111095754210595 C 0.0 **** -0.24
14197 H 71.94862981752348 86.81497783615531 34.51155175754984 H 0.0 **** 0.06
14198 H 71.4670305648152 85.10678276456505 34.384821295889196 H 0.0 **** 0.06
14199 H 71.17175963692802 86.21837562284468 33.02509539184234 H 0.0 **** 0.06
14200 H 70.22410543626563 86.37431153369221 34.52379265470269 H 0.0 **** 0.06
14201 C 103.38752832272851 100.6400897528646 60.502544269007345 C 0.0 **** -0.24
14202 H 103.35772804053408 100.6117937128012 59.41304338774282 H 0.0 **** 0.06
14203 H 103.3314446621765 101.67545361522933 60.84086546595714 H 0.0 **** 0.06
14204 H 104.31718397091646 100.19235086487551 60.852106951381984 H 0.0 **** 0.06
14205 H 102.54201346759345 100.08105161972324 60.90322475505866 H 0.0 **** 0.06
14206 C 56.74020743882972 108.54340528599549 82.3209071306851 C 0.0 **** -0.24
14207 H 57.079438424757996 108.53508599675231 81.28594775900144 H 0.0 **** 0.06
14208 H 57.39646588889055 109.18146172725106 82.91350879344324 H 0.0 **** 0.06
14209 H 56.76182112859593 107.52939331438373 82.71965568884026 H 0.0 **** 0.06
14210 H 55.721544579884366 108.9292301203848 82.36559562561013 H 0.0 **** 0.06
14211 C 95.35550727034087 90.77947889887412 1.4566349345704737 C 0.0 **** -0.24
14212 H 95.0707595640477 91.37673458242597 2.323431511950943 H 0.0 **** 0.06
14213 H 94.64657713602782 89.96073343032647 1.3322050309841131 H 0.0 **** 0.06
14214 H 96.35626575895367 90.37533804092884 1.6073248499815804 H 0.0 **** 0.06
14215 H 95.34781402684325 91.40615548868392 0.5651692319409136 H 0.0 **** 0.06
14216 C 8.918717064496263 24.455346286784675 79.51902558017842 C 0.0 **** -0.24
14217 H 8.922665390864097 25.514492242067092 79.2648621773313 H 0.0 **** 0.06
14218 H 8.09855917732807 24.248717574766147 80.20682896410193 H 0.0 **** 0.06
14219 H 9.864854499527326 24.191927178851813 79.9930237313264 H 0.0 **** 0.06
14220 H 8.790508325955102 23.86413132292222 78.61213845116339 H 0.0 **** 0.06
14221 C 54.57395585681536 3.023437425394036 42.024361931621684 C 0.0 **** -0.24
14222 H 54.45889357285256 2.5118816453851878 42.97952693138703 H 0.0 **** 0.06
14223 H 55.43783627039528 3.6871057891813734 42.070706687873724 H 0.0 **** 0.06
14224 H 53.6776045859047 3.6068778549948775 41.814622773348276 H 0.0 **** 0.06
14225 H 54.72310940908994 2.2878284534296824 41.23413126394814 H 0.0 **** 0.06
14226 C 69.10799590625169 54.12588260517127 36.02137470881692 C 0.0 **** -0.24
14227 H 68.63401864192798 53.240800009171984 36.44519919161175 H 0.0 **** 0.06
14228 H 69.95538732621782 53.82418219521735 35.40539538423823 H 0.0 **** 0.06
14229 H 69.45628253261819 54.77248578656422 36.82697363460167 H 0.0 **** 0.06
14230 H 68.3861659057265 54.66578665181493 35.40888314707922 H 0.0 **** 0.06
14231 C 43.77742332508183 106.59645476510042 85.45856262662262 C 0.0 **** -0.24
14232 H 43.24198440294052 107.19624458316247 86.19467281400246 H 0.0 **** 0.06
14233 H 43.509058122831306 106.92999815616832 84.45470111634 H 0.0 **** 0.06
14234 H 43.507127310965075 105.54728954353175 85.5777987876136 H 0.0 **** 0.06
14235 H 44.851609645580055 106.71449448790878 85.60531172399457 H 0.0 **** 0.06
14236 C 69.46521621009515 70.38956066645869 53.098316890388446 C 0.0 **** -0.24
14237 H 69.1436379507104 70.2269587951838 52.06889278420846 H 0.0 **** 0.06
14238 H 69.2396034318549 71.41483861155865 53.39157082896253 H 0.0 **** 0.06
14239 H 70.53895703277624 70.21717963282765 53.174167417231104 H 0.0 **** 0.06
14240 H 68.9385471349566 69.69852404261985 53.75653033284482 H 0.0 **** 0.06
14241 C 16.4543548636926 79.57439262950807 24.03502251142126 C 0.0 **** -0.24
14242 H 16.218314417729374 79.0746380763121 23.095444326063756 H 0.0 **** 0.06
14243 H 15.529859359552859 79.84566524249591 24.544869647004177 H 0.0 **** 0.06
14244 H 17.034875177421895 80.47420457600678 23.83140156253799 H 0.0 **** 0.06
14245 H 17.03504975936565 78.90305277115374 24.66713410335818 H 0.0 **** 0.06
14246 C 20.977808130296808 35.932816032910495 39.9700271698984 C 0.0 **** -0.24
14247 H 19.959772228712552 35.90137624028097 39.580984322085044 H 0.0 **** 0.06
14248 H 21.166877144312423 36.91047630802217 40.41482175446981 H 0.0 **** 0.06
14249 H 21.683081487210586 35.761597090306395 39.157368950622754 H 0.0 **** 0.06
14250 H 21.101063882201345 35.15829072501214 40.727696281037254 H 0.0 **** 0.06
14251 C 17.033005893323235 76.50431367784412 103.26285863212858 C 0.0 **** -0.24
14252 H 16.006115843386695 76.39683998510236 102.91479103874191 H 0.0 **** 0.06
14253 H 17.036791908903268 76.99865549127804 104.23434239637584 H 0.0 **** 0.06
14254 H 17.598696611720214 77.10183352673647 102.54795380927577 H 0.0 **** 0.06
14255 H 17.490389967193437 75.51858136428382 103.3547854430731 H 0.0 **** 0.06
14256 C 71.77888023938641 51.24944132791222 5.00654875808671 C 0.0 **** -0.24
14257 H 70.83985113814975 51.278831136207884 4.4528796300364615 H 0.0 **** 0.06
14258 H 72.12197495246178 52.267950054544485 5.191940023858926 H 0.0 **** 0.06
14259 H 72.52683795813266 50.71328064396067 4.424052628005109 H 0.0 **** 0.06
14260 H 71.6234973791662 50.73932109925062 5.957010416767526 H 0.0 **** 0.06
14261 C 105.63500395908763 37.056787665884144 93.34115894640573 C 0.0 **** -0.24
14262 H 104.98638154990599 37.42387540513516 94.13709139859824 H 0.0 **** 0.06
14263 H 106.61507736706399 37.528325495499416 93.42501682494088 H 0.0 **** 0.06
14264 H 105.19564208197193 37.30041657901512 92.37386739046289 H 0.0 **** 0.06
14265 H 105.74238276879387 35.97631828213366 93.4298973357048 H 0.0 **** 0.06
14266 C 2.763598092359075 14.703461028592258 88.14210274983907 C 0.0 **** -0.24
14267 H 3.7500920886172935 14.756346057371573 88.60238703031342 H 0.0 **** 0.06
14268 H 2.7226143941863086 15.386001026750137 87.29300889727142 H 0.0 **** 0.06
14269 H 2.006149488841345 14.985015651712274 88.8728464910605 H 0.0 **** 0.06
14270 H 2.577915026716596 13.68550581805917 87.79898925778411 H 0.0 **** 0.06
14271 C 109.59172613378266 0.8220747078422193 18.071462198175652 C 0.0 **** -0.24
14272 H 109.8756853322836 -0.028403880461851827 18.69001787976299 H 0.0 **** 0.06
14273 H 108.8925164270024 1.453863533746457 18.619980720592935 H 0.0 **** 0.06
14274 H 109.11889079746489 0.4646479723110133 17.15683400849315 H 0.0 **** 0.06
14275 H 110.48203109128144 1.3991362340842244 17.818588683328585 H 0.0 **** 0.06
14276 C 4.336402854570881 5.554113081760391 18.71032946603617 C 0.0 **** -0.24
14277 H 4.73696425173442 5.416885036182379 19.714488751149048 H 0.0 **** 0.06
14278 H 3.7605703664581664 6.479108958578536 18.672113441926726 H 0.0 **** 0.06
14279 H 3.6902886709887426 4.71291881601789 18.45883683561499 H 0.0 **** 0.06
14280 H 5.157788129102125 5.607539516262392 17.995878835453993 H 0.0 **** 0.06
14281 C 39.19349596654151 40.25550198531063 62.7179701419182 C 0.0 **** -0.24
14282 H 39.91068209103704 40.89229550215097 62.198002788735224 H 0.0 **** 0.06
14283 H 38.331132470214264 40.07983123722039 62.07429795160702 H 0.0 **** 0.06
14284 H 38.869048264606725 40.747383436495696 63.634443350569995 H 0.0 **** 0.06
14285 H 39.66463926292562 39.30357253809741 62.962782690535036 H 0.0 **** 0.06
14286 C 3.033773672676645 81.8443305781384 7.970067715865007 C 0.0 **** -0.24
14287 H 2.152804028567715 81.63703210827939 8.578124233862622 H 0.0 **** 0.06
14288 H 3.605625208870066 82.65465031649855 8.423780922800344 H 0.0 **** 0.06
14289 H 2.7217893679304694 82.13642331524319 6.966613400659545 H 0.0 **** 0.06
14290 H 3.6539341929519793 80.9502562516795 7.91193120582043 H 0.0 **** 0.06
14291 C 75.58009713073612 29.472698036576276 54.44612789578099 C 0.0 **** -0.24
14292 H 76.25123708949315 29.67556506219526 53.612301218951075 H 0.0 **** 0.06
14293 H 76.05263242932172 28.767012621716162 55.1294121360267 H 0.0 **** 0.06
14294 H 74.65047713179916 29.04602230165338 54.06854827069236 H 0.0 **** 0.06
14295 H 75.36492032767141 30.40252084807321 54.97345358988326 H 0.0 **** 0.06
14296 C 2.164484830604735 80.883745104242 35.58079304386885 C 0.0 **** -0.24
14297 H 2.025249237993293 81.63072436082555 34.79844825480055 H 0.0 **** 0.06
14298 H 2.644544705339129 81.346476883388 36.44273425517696 H 0.0 **** 0.06
14299 H 2.793233788761441 80.07629495215821 35.20427091865281 H 0.0 **** 0.06
14300 H 1.1959927836401647 80.48178580596763 35.87554150901727 H 0.0 **** 0.06
14301 C 83.8782917089135 106.3946772388954 16.411262235545564 C 0.0 **** -0.24
14302 H 84.51459133813341 105.52866474272884 16.224722485264678 H 0.0 **** 0.06
14303 H 83.37291856689865 106.67960709478199 15.487700705518392 H 0.0 **** 0.06
14304 H 84.49111234922314 107.22518692964842 16.761377028831973 H 0.0 **** 0.06
14305 H 83.1372874565774 106.14477418224615 17.1701304650864 H 0.0 **** 0.06
14306 C 109.50804732581365 74.2541585290609 89.97302886627773 C 0.0 **** -0.24
14307 H 110.57269335443841 74.35920921261798 89.76625602159454 H 0.0 **** 0.06
14308 H 109.20572928226231 73.21983907060805 89.80563717668208 H 0.0 **** 0.06
14309 H 108.94182042428113 74.91072985247084 89.312355678675 H 0.0 **** 0.06
14310 H 109.31141655871687 74.52689421402516 91.01003873485433 H 0.0 **** 0.06
14311 C 92.83696845489834 53.657757779714785 80.08593882490737 C 0.0 **** -0.24
14312 H 92.62315663498262 54.72535063738347 80.1221298972647 H 0.0 **** 0.06
14313 H 93.34833499067257 53.35919202443701 81.00092440183523 H 0.0 **** 0.06
14314 H 93.47317591426166 53.443561139650924 79.22713224852018 H 0.0 **** 0.06
14315 H 91.90320627967621 53.10292731738792 79.99356875200945 H 0.0 **** 0.06
14316 C 85.71360671503115 22.139337843341963 51.37187418550968 C 0.0 **** -0.24
14317 H 85.37551338252023 21.366082097844156 50.68245683337415 H 0.0 **** 0.06
14318 H 84.86189564756299 22.744221480113964 51.685480600091466 H 0.0 **** 0.06
14319 H 86.44762211031187 22.77413399453232 50.875463959493175 H 0.0 **** 0.06
14320 H 86.16914682523554 21.672760235024498 52.24547902828863 H 0.0 **** 0.06
14321 C 104.09692258714307 4.9497976923534 9.340117194264735 C 0.0 **** -0.24
14322 H 104.94730001812201 4.751129007128213 8.688380433352904 H 0.0 **** 0.06
14323 H 104.43671994221609 4.999736811545972 10.374553611280703 H 0.0 **** 0.06
14324 H 103.36558385721014 4.146935673333729 9.236342397671024 H 0.0 **** 0.06
14325 H 103.63849824973522 5.897924120801349 9.060284688615582 H 0.0 **** 0.06
14326 C 62.94136114882846 108.68660522075055 92.04960266795649 C 0.0 **** -0.24
14327 H 63.810955829333196 108.63056023356717 91.39574882124299 H 0.0 **** 0.06
14328 H 62.73979775244645 107.70179462539141 92.4712899473677 H 0.0 **** 0.06
14329 H 62.07614056463301 109.02125012337171 91.47703475994388 H 0.0 **** 0.06
14330 H 63.1384836212262 109.39364347463356 92.8564134147214 H 0.0 **** 0.06
14331 C 60.03464241475149 28.758646079969424 22.164371402771504 C 0.0 **** -0.24
14332 H 60.50939474927159 28.17322231951829 21.377058822898828 H 0.0 **** 0.06
14333 H 59.06341353050942 28.325764630507535 22.404106612025355 H 0.0 **** 0.06
14334 H 59.90136160932144 29.78529167446561 21.822548438979098 H 0.0 **** 0.06
14335 H 60.66621580580568 28.751277224154137 23.052900879451915 H 0.0 **** 0.06
14336 C 71.08595424317929 102.46743548842876 72.00921291043608 C 0.0 **** -0.24
14337 H 71.94604294250757 102.8325414950401 71.44860087094794 H 0.0 **** 0.06
14338 H 70.20183710765656 103.04449887488232 71.73611282105645 H 0.0 **** 0.06
14339 H 71.27632910894931 102.57530120817992 73.07732820959275 H 0.0 **** 0.06
14340 H 70.92025184119683 101.41504938322183 71.77456816093395 H 0.0 **** 0.06
14341 C 41.62274738234876 29.724671514654062 66.00847335737996 C 0.0 **** -0.24
14342 H 40.584687518587145 29.78468738432656 65.6811559455455 H 0.0 **** 0.06
14343 H 42.08634907757107 30.70804978326038 65.92510338465951 H 0.0 **** 0.06
14344 H 42.15997110059655 29.01450945320414 65.38016024494948 H 0.0 **** 0.06
14345 H 41.65863537106253 29.392779246388045 67.04537806081481 H 0.0 **** 0.06
14346 C 54.79467870248584 88.97941892168069 15.374323878485725 C 0.0 **** -0.24
14347 H 55.31079886968587 89.87242621581379 15.021872737117558 H 0.0 **** 0.06
14348 H 54.73732080977854 88.99913256577156 16.462104302264134 H 0.0 **** 0.06
14349 H 55.34374006136858 88.09387745320953 15.054705699195303 H 0.0 **** 0.06
14350 H 53.788522584709625 88.9529677539017 14.957313077057297 H 0.0 **** 0.06
14351 C 39.65717597730571 51.24455617014705 7.2754526516314115 C 0.0 **** -0.24
14352 H 38.79126284612198 51.510738856924846 7.881213384246735 H 0.0 **** 0.06
14353 H 40.096169036512975 50.322135553668005 7.657428085183142 H 0.0 **** 0.06
14354 H 40.39433347005942 52.045890054403856 7.324152657343632 H 0.0 **** 0.06
14355 H 39.346832254005534 51.0989323056422 6.241406104856054 H 0.0 **** 0.06
14356 C 88.77122167021531 69.01356515400784 101.3179465748034 C 0.0 **** -0.24
14357 H 89.14981498144468 68.07729987844456 101.72772735654196 H 0.0 **** 0.06
14358 H 87.7226427524137 68.89198785057494 101.04310632730505 H 0.0 **** 0.06
14359 H 89.34996848352637 69.28364628345057 100.43515094205442 H 0.0 **** 0.06
14360 H 88.86187095433318 69.79977979168376 102.06730503611496 H 0.0 **** 0.06
14361 C 9.59467453563542 24.285210554192332 0.6610298057187549 C 0.0 **** -0.24
14362 H 9.835973516908894 25.25014436496633 1.106735313333445 H 0.0 **** 0.06
14363 H 10.010272781986089 23.48688665750231 1.2762020869799358 H 0.0 **** 0.06
14364 H 10.020474127310479 24.232011264761354 -0.3409878639106694 H 0.0 **** 0.06
14365 H 8.511936597050521 24.172563365756048 0.602814297901034 H 0.0 **** 0.06
14366 C 17.537625375333548 9.24780179972835 70.34626783227037 C 0.0 **** -0.24
14367 H 18.487448329629558 9.779927189701425 70.28699031161511 H 0.0 **** 0.06
14368 H 17.457657497208103 8.552780755357645 69.50915382925558 H 0.0 **** 0.06
14369 H 16.716615612960112 9.963133176935273 70.30567448815543 H 0.0 **** 0.06
14370 H 17.49089407854342 8.693516549358094 71.28358523015481 H 0.0 **** 0.06
14371 C 22.04208587186068 18.287737641173536 87.76274302307546 C 0.0 **** -0.24
14372 H 22.873766072884063 18.27908204244945 87.05814668961114 H 0.0 **** 0.06
14373 H 21.255742996398414 17.62282403427479 87.4062369037388 H 0.0 **** 0.06
14374 H 21.650184653045315 19.301365511937394 87.84892222643211 H 0.0 **** 0.06
14375 H 22.390187108870002 17.94890284813363 88.73873349273624 H 0.0 **** 0.06
14376 C 67.39528160584112 38.366770858199004 3.6854746907299045 C 0.0 **** -0.24
14377 H 66.80573031001876 39.27747492996406 3.57781203023751 H 0.0 **** 0.06
14378 H 66.72944743349115 37.523163329385966 3.86808374881889 H 0.0 **** 0.06
14379 H 68.08300819724383 38.476023922121726 4.524463249461149 H 0.0 **** 0.06
14380 H 67.96237956309406 38.19123546111069 2.7716896719427666 H 0.0 **** 0.06
14381 C 20.89349559862154 17.31123460599825 96.47095537700204 C 0.0 **** -0.24
14382 H 21.31748170530676 17.717724659318122 97.38966399613619 H 0.0 **** 0.06
14383 H 20.034788530512742 16.68429095716715 96.71367282055519 H 0.0 **** 0.06
14384 H 21.64535788342991 16.713707574470476 95.95661273417703 H 0.0 **** 0.06
14385 H 20.574816364409514 18.129332477981563 95.82549100983931 H 0.0 **** 0.06
14386 C 82.63095988718561 46.49807985675966 26.94443451548824 C 0.0 **** -0.24
14387 H 82.01210085877787 46.11091834958606 26.13461702833075 H 0.0 **** 0.06
14388 H 83.51208892371162 45.86581491020189 27.061004677206682 H 0.0 **** 0.06
14389 H 82.05874373551453 46.499142248607086 27.871724314096923 H 0.0 **** 0.06
14390 H 82.94257049457346 47.51582708788919 26.709032142434808 H 0.0 **** 0.06
14391 C 24.970189509930265 33.922731896922244 76.26926196987398 C 0.0 **** -0.24
14392 H 25.035458442079673 34.41226523205006 75.29732731863083 H 0.0 **** 0.06
14393 H 24.613120114743964 32.90091868382021 76.13796039156574 H 0.0 **** 0.06
14394 H 24.277348203750876 34.47124806025306 76.90697725152683 H 0.0 **** 0.06
14395 H 25.9560159291361 33.90629087973872 76.73403807659884 H 0.0 **** 0.06
14396 C 82.33976933227154 15.026130865962955 47.61188420380417 C 0.0 **** -0.24
14397 H 81.61929766700817 14.322221854947486 47.19553754817993 H 0.0 **** 0.06
14398 H 82.33350756587424 15.943384204463825 47.02154950629777 H 0.0 **** 0.06
14399 H 83.33532330157624 14.583432986597444 47.58621849598894 H 0.0 **** 0.06
14400 H 82.0702207624544 15.255144732961355 48.64191720325227 H 0.0 **** 0.06
14401 C 22.591869017391048 106.18732006513812 51.69529558597975 C 0.0 **** -0.24
14402 H 22.313750249405928 105.14471695995735 51.85073882535056 H 0.0 **** 0.06
14403 H 22.27994422507831 106.7787534491764 52.55650077194588 H 0.0 **** 0.06
14404 H 22.099835918498684 106.56452940175575 50.79799938086251 H 0.0 **** 0.06
14405 H 23.673179547282643 106.26129790580308 51.57530087784008 H 0.0 **** 0.06
14406 C 95.63296538320691 35.47453702200937 32.80800459527699 C 0.0 **** -0.24
14407 H 95.35611522304718 34.85955139451221 31.95163812244604 H 0.0 **** 0.06
14408 H 95.3182745648226 36.504176413438415 32.63194955033886 H 0.0 **** 0.06
14409 H 96.71370094753405 35.4427899453799 32.94508709202969 H 0.0 **** 0.06
14410 H 95.14193093523558 35.092900303698514 33.70339192385092 H 0.0 **** 0.06
14411 C 36.652477239198234 94.16730110734068 45.549278401963704 C 0.0 **** -0.24
14412 H 36.75779496349068 94.54850211822979 46.565960223363106 H 0.0 **** 0.06
14413 H 37.508438340017705 94.48178225992059 44.95256068062005 H 0.0 **** 0.06
14414 H 35.73637621641804 94.5615793301467 45.1082120593714 H 0.0 **** 0.06
14415 H 36.60520124948458 93.07913692471824 45.572698381813126 H 0.0 **** 0.06
14416 C 70.53501097607142 39.689597079765136 26.773853554054966 C 0.0 **** -0.24
14417 H 71.30019243280647 40.23951901475512 27.322280482705565 H 0.0 **** 0.06
14418 H 69.65524683903432 39.56538350417308 27.4053841718453 H 0.0 **** 0.06
14419 H 70.92214880480486 38.70974398437878 26.493275389280512 H 0.0 **** 0.06
14420 H 70.2625387835209 40.24363880052439 25.87588222255704 H 0.0 **** 0.06
14421 C 73.98779263024664 85.79910978361113 26.603290065435093 C 0.0 **** -0.24
14422 H 73.72083420762215 85.70090054094453 25.550016540989425 H 0.0 **** 0.06
14423 H 73.89627350897649 84.8291146724784 27.09234999546754 H 0.0 **** 0.06
14424 H 73.31745239648302 86.51234419408797 27.08183939291004 H 0.0 **** 0.06
14425 H 75.01542633755275 86.15348494280926 26.68545506060643 H 0.0 **** 0.06
14426 C 50.455618626517094 97.6476412058475 79.20687596343 C 0.0 **** -0.24
14427 H 50.300022294895996 97.77427821475725 80.27760498787688 H 0.0 **** 0.06
14428 H 50.68267976866855 98.6144951601473 78.75639112302285 H 0.0 **** 0.06
14429 H 49.55286372464121 97.23889697467203 78.75350461645827 H 0.0 **** 0.06
14430 H 51.28884282796042 96.96424220234181 79.0393374363276 H 0.0 **** 0.06
14431 C 49.262816468165795 59.47278189503186 82.64380657195164 C 0.0 **** -0.24
14432 H 49.02656720873074 60.52429915825661 82.80482074046904 H 0.0 **** 0.06
14433 H 50.05706365665907 59.38832010532306 81.90133601456162 H 0.0 **** 0.06
14434 H 48.37455328690487 58.95194066083951 82.28756122378269 H 0.0 **** 0.06
14435 H 49.59370913232107 59.027333883613096 83.58251793671332 H 0.0 **** 0.06
14436 C 96.59339134715562 27.09547410715444 36.62775370287952 C 0.0 **** -0.24
14437 H 97.3470514684447 27.446665755622234 37.33281095439821 H 0.0 **** 0.06
14438 H 95.8928216321055 27.902654403708738 36.41174687230915 H 0.0 **** 0.06
14439 H 96.05528392196932 26.252829241912302 37.06128209449582 H 0.0 **** 0.06
14440 H 97.07997690463418 26.77815537212562 35.70509384602238 H 0.0 **** 0.06
14441 C 0.7613286846374523 49.7854864916544 77.08388459167088 C 0.0 **** -0.24
14442 H 0.9046216015653101 49.9085067307417 78.15707329329834 H 0.0 **** 0.06
14443 H 0.3097555220454904 48.812597023424736 76.88720039041442 H 0.0 **** 0.06
14444 H 1.7258012770471538 49.84798419580894 76.57973825633121 H 0.0 **** 0.06
14445 H 0.10528387068306166 50.57322804649259 76.71244368425408 H 0.0 **** 0.06
14446 C 25.719936866863122 80.73308132067297 14.120992613610024 C 0.0 **** -0.24
14447 H 25.597548340585377 81.6466011797225 14.703801700426592 H 0.0 **** 0.06
14448 H 26.713479091688555 80.32099798114868 14.297528820022286 H 0.0 **** 0.06
14449 H 25.60365661635032 80.96017423703267 13.060914969572845 H 0.0 **** 0.06
14450 H 24.965993447328714 80.00595186155678 14.422143605879942 H 0.0 **** 0.06
14451 C 18.40319376130679 74.49034509338955 83.71491917969234 C 0.0 **** -0.24
14452 H 17.3712877893861 74.14125256646213 83.706902349534 H 0.0 **** 0.06
14453 H 19.039364591247693 73.75441912521686 83.22262705599798 H 0.0 **** 0.06
14454 H 18.732773825015183 74.62440775090727 84.74533514482522 H 0.0 **** 0.06
14455 H 18.46963525364802 75.44021957572738 83.18567746426271 H 0.0 **** 0.06
14456 C 24.888719587653384 86.39612990834661 36.67409231453681 C 0.0 **** -0.24
14457 H 25.152088826163606 85.48956731984151 36.12900352133883 H 0.0 **** 0.06
14458 H 25.343638929759464 87.257416537202 36.18539959624093 H 0.0 **** 0.06
14459 H 25.253865198512784 86.32334798637658 37.69784681080955 H 0.0 **** 0.06
14460 H 23.804805619826112 86.51248708630487 36.68242294566636 H 0.0 **** 0.06
14461 C 63.01844842792835 25.0121507783698 48.08883054069071 C 0.0 **** -0.24
14462 H 63.18223802757174 25.694612397048473 48.92254508867978 H 0.0 **** 0.06
14463 H 61.96260092964745 25.01234021348165 47.821518369215426 H 0.0 **** 0.06
14464 H 63.32075784694098 24.005880230978022 48.37906573700485 H 0.0 **** 0.06
14465 H 63.61115790882319 25.335974939331976 47.23263003612698 H 0.0 **** 0.06
14466 C 5.143395266165456 37.42536930866797 82.82609011253695 C 0.0 **** -0.24
14467 H 4.8578733338632745 36.58565635987085 83.45943617635055 H 0.0 **** 0.06
14468 H 5.649501364504056 37.053323053823746 81.93542965439332 H 0.0 **** 0.06
14469 H 5.8147826538675425 38.084975523688186 83.37659489855673 H 0.0 **** 0.06
14470 H 4.251038195161776 37.97887183520858 82.53307356829299 H 0.0 **** 0.06
14471 C 86.51568235643506 10.242345316239636 35.64684005259087 C 0.0 **** -0.24
14472 H 86.58353945976863 9.298736830719946 36.188897557707634 H 0.0 **** 0.06
14473 H 85.46694271321344 10.513085096132272 35.52101064618123 H 0.0 **** 0.06
14474 H 86.98410336666664 10.133931565222298 34.66842086962563 H 0.0 **** 0.06
14475 H 87.02686020258523 11.022486127798743 36.21046258747255 H 0.0 **** 0.06
14476 C 16.923825079405617 94.98088702313999 55.40772795384936 C 0.0 **** -0.24
14477 H 17.678056429431678 95.35096195503898 54.71382778821072 H 0.0 **** 0.06
14478 H 17.00149834581174 95.52272001709828 56.3512642920943 H 0.0 **** 0.06
14479 H 17.08308523897813 93.91766136325391 55.58551216923928 H 0.0 **** 0.06
14480 H 15.931822943293867 95.13345503591506 54.98224042083649 H 0.0 **** 0.06
14481 C 49.011940204340725 77.99501741414406 58.37884157024578 C 0.0 **** -0.24
14482 H 48.07028401124295 78.41306712518809 58.73766049669746 H 0.0 **** 0.06
14483 H 48.92833103832217 76.91006496214919 58.32128712624029 H 0.0 **** 0.06
14484 H 49.813311891231955 78.26308166585318 59.06728026381211 H 0.0 **** 0.06
14485 H 49.23336101608927 78.39656741197564 57.3898687201081 H 0.0 **** 0.06
14486 C 105.38374262606574 12.182184964226295 30.83008991795657 C 0.0 **** -0.24
14487 H 104.69400293589027 12.363891019499647 31.65431011446094 H 0.0 **** 0.06
14488 H 104.85377356314508 12.2869677813142 29.88279573348376 H 0.0 **** 0.06
14489 H 105.78632748821016 11.171877203670691 30.910293264968487 H 0.0 **** 0.06
14490 H 106.19878638795552 12.903917464376985 30.872394437077162 H 0.0 **** 0.06
14491 C 31.837411670673305 94.37770859379157 99.75998166891662 C 0.0 **** -0.24
14492 H 31.359832914533797 95.08805593376769 99.08520389326117 H 0.0 **** 0.06
14493 H 32.173545330976935 94.89773525893277 100.6569227394927 H 0.0 **** 0.06
14494 H 32.69299786472095 93.92229046225282 99.2606005633005 H 0.0 **** 0.06
14495 H 31.123234429451202 93.60174820837946 100.03496566069902 H 0.0 **** 0.06
14496 C 104.427507361378 62.91857748021613 108.89932747232211 C 0.0 **** -0.24
14497 H 103.53863403731235 63.25252818369364 109.43541799620536 H 0.0 **** 0.06
14498 H 105.30538306149732 63.0560639544658 109.5316609704403 H 0.0 **** 0.06
14499 H 104.54155099135393 63.50280459291366 107.98642135673788 H 0.0 **** 0.06
14500 H 104.32418523775364 61.86303700290759 108.64551502127665 H 0.0 **** 0.06
14501 C 100.84669500126878 28.5891026996255 41.804079138450675 C 0.0 **** -0.24
14502 H 99.97078435558507 28.77872072253166 41.18426112309646 H 0.0 **** 0.06
14503 H 100.53590246273595 28.121536707700898 42.73907805312035 H 0.0 **** 0.06
14504 H 101.35027694791796 29.53249592245072 42.018747233484135 H 0.0 **** 0.06
14505 H 101.53002510893324 27.92505339404758 41.274318466903935 H 0.0 **** 0.06
14506 C 34.37045620917996 46.0022221009435 79.89742599029017 C 0.0 **** -0.24
14507 H 33.93386010387678 45.91224503819862 78.9018437881594 H 0.0 **** 0.06
14508 H 33.71845089669927 46.60819812281966 80.526762951409 H 0.0 **** 0.06
14509 H 35.34887217908704 46.478127703656696 79.82189467786006 H 0.0 **** 0.06
14510 H 34.48087709983878 45.01103703523279 80.33567727266289 H 0.0 **** 0.06
14511 C 90.86047423561729 86.38162877410674 67.41523595683304 C 0.0 **** -0.24
14512 H 90.86452667077364 87.47166690312302 67.45499022074824 H 0.0 **** 0.06
14513 H 90.05528513589803 85.99890905542127 68.04214901312491 H 0.0 **** 0.06
14514 H 91.81524903219561 86.00158744125197 67.77753072068231 H 0.0 **** 0.06
14515 H 90.70728033158537 86.05731847175304 66.3863106530552 H 0.0 **** 0.06
14516 C 32.91916430107452 65.01998548561279 13.1258235438045 C 0.0 **** -0.24
14517 H 32.242849274360395 64.5250001651958 12.428093340289678 H 0.0 **** 0.06
14518 H 33.466260162761415 64.26797560443434 13.695733357496522 H 0.0 **** 0.06
14519 H 32.34212371001556 65.64478174246904 13.808273326311507 H 0.0 **** 0.06
14520 H 33.622506287325166 65.63984762076318 12.571357349723996 H 0.0 **** 0.06
14521 C 82.00434881631587 37.042096018692035 57.200520675003375 C 0.0 **** -0.24
14522 H 82.19582205693384 36.20684962979598 57.87420185582413 H 0.0 **** 0.06
14523 H 82.70895610225622 37.007428646110895 56.369571451792496 H 0.0 **** 0.06
14524 H 82.12585627749466 37.98009084950462 57.741584867347036 H 0.0 **** 0.06
14525 H 80.98615944264596 36.972821119978306 56.81718626682612 H 0.0 **** 0.06
14526 C 39.68029568855604 2.1923303826443146 69.38321208401526 C 0.0 **** -0.24
14527 H 39.625983823201324 1.1052958503557306 69.44786533984316 H 0.0 **** 0.06
14528 H 39.54189611138574 2.621377235185861 70.37560526092331 H 0.0 **** 0.06
14529 H 38.89869780158176 2.5570631704868276 68.71697219858616 H 0.0 **** 0.06
14530 H 40.65591791206492 2.484375490384167 68.9933071628955 H 0.0 **** 0.06
14531 C 61.65782503549687 9.663139926058008 5.242001354318745 C 0.0 **** -0.24
14532 H 60.63896535258067 9.281675697262187 5.182194952896225 H 0.0 **** 0.06
14533 H 61.972187867257276 10.014905760587311 4.258793986394636 H 0.0 **** 0.06
14534 H 62.324793328596 8.866605216791811 5.572400559620434 H 0.0 **** 0.06
14535 H 61.696415570726515 10.48853553781143 5.952835171403777 H 0.0 **** 0.06
14536 C 21.020054204513222 18.798863226039046 24.739623125926528 C 0.0 **** -0.24
14537 H 20.740777296799365 19.837207644386638 24.920877604196463 H 0.0 **** 0.06
14538 H 20.474305631256037 18.4224264779417 23.874675895246654 H 0.0 **** 0.06
14539 H 20.774019571551115 18.198792978860382 25.615282583822946 H 0.0 **** 0.06
14540 H 22.091821706612645 18.739941274326085 24.5476477800176 H 0.0 **** 0.06
14541 C 50.11816162265302 56.33095369554508 78.13443683295597 C 0.0 **** -0.24
14542 H 50.74406143932055 56.431321734349126 77.246896066865 H 0.0 **** 0.06
14543 H 50.419868689586224 55.44482726130559 78.69190665096829 H 0.0 **** 0.06
14544 H 49.075045243568155 56.23391262199277 77.83378071183402 H 0.0 **** 0.06
14545 H 50.235050488915306 57.21399655279234 78.76232866074236 H 0.0 **** 0.06
14546 C 77.47555399622675 84.20370671190676 6.259879072718775 C 0.0 **** -0.24
14547 H 77.33994362054442 84.41370638773088 5.198501726744098 H 0.0 **** 0.06
14548 H 78.51272636852798 83.92631862517783 6.444614337807025 H 0.0 **** 0.06
14549 H 76.82101288884307 83.38266091035916 6.553856344740154 H 0.0 **** 0.06
14550 H 77.2276189805021 85.09215585865223 6.840271339613366 H 0.0 **** 0.06
14551 C 40.19454322742405 67.38806712104986 106.14558389787595 C 0.0 **** -0.24
14552 H 39.40780725103974 68.14239864139137 106.17126171500314 H 0.0 **** 0.06
14553 H 41.16145376652105 67.87676973066476 106.0265686779461 H 0.0 **** 0.06
14554 H 40.02309616028742 66.71189136449297 105.30915995087227 H 0.0 **** 0.06
14555 H 40.18551018485715 66.82311296847124 107.07804360442537 H 0.0 **** 0.06
14556 C 103.8045531118563 55.161024946327956 12.288452589036325 C 0.0 **** -0.24
14557 H 104.31240980312936 55.68937417714179 11.481975990670662 H 0.0 **** 0.06
14558 H 104.31093006670199 54.21440904625298 12.478388378348257 H 0.0 **** 0.06
14559 H 102.77005376015762 54.97017204950594 12.002169250897012 H 0.0 **** 0.06
14560 H 103.82507535921175 55.771835141349136 13.191552614376278 H 0.0 **** 0.06
14561 C 95.69694935405978 51.529859644423496 39.02729722136499 C 0.0 **** -0.24
14562 H 96.34763471561261 51.25367912685494 39.8576048713559 H 0.0 **** 0.06
14563 H 95.2150486969986 52.483052941562235 39.24562536131842 H 0.0 **** 0.06
14564 H 94.93600519341918 50.76043966819936 38.89116191769466 H 0.0 **** 0.06
14565 H 96.28907592157682 51.620823557769505 38.11650439412085 H 0.0 **** 0.06
14566 C 40.31810708119971 89.7203262555559 24.777325777236456 C 0.0 **** -0.24
14567 H 40.680567027773776 89.1905241600482 23.896151327125594 H 0.0 **** 0.06
14568 H 40.994092375538 90.54347936056831 25.0081323983066 H 0.0 **** 0.06
14569 H 40.27953560247539 89.03283840167319 25.622777488112575 H 0.0 **** 0.06
14570 H 39.320453157064435 90.11177981941722 24.58087331280072 H 0.0 **** 0.06
14571 C 5.2939047814532785 80.74767398133577 69.22830882941771 C 0.0 **** -0.24
14572 H 6.166506570076194 80.1827542496358 69.55434658403681 H 0.0 **** 0.06
14573 H 5.603579701459722 81.74447658217515 68.9135169819234 H 0.0 **** 0.06
14574 H 4.585772425653687 80.83081667708957 70.05360864802023 H 0.0 **** 0.06
14575 H 4.819708023763923 80.23310214955686 68.39265272694674 H 0.0 **** 0.06
14576 C 103.31502270799245 49.33591537248513 34.13124553400257 C 0.0 **** -0.24
14577 H 104.336610407828 49.5663268149292 34.43363105829933 H 0.0 **** 0.06
14578 H 103.32862704669921 48.81968062018522 33.171228619366204 H 0.0 **** 0.06
14579 H 102.74680628553165 50.261590033347964 34.038361756575334 H 0.0 **** 0.06
14580 H 102.8486867784477 48.69732511673029 34.88173748554938 H 0.0 **** 0.06
14581 C 54.910345403610336 78.78816858921479 26.125139034074436 C 0.0 **** -0.24
14582 H 54.478553162303 79.77143112375109 25.941525158130872 H 0.0 **** 0.06
14583 H 55.888989883600345 78.72560479280028 25.647936058516507 H 0.0 **** 0.06
14584 H 54.254485782983124 78.02093852866722 25.711881089742974 H 0.0 **** 0.06
14585 H 55.018092535862706 78.63306236354595 27.198359163491517 H 0.0 **** 0.06
14586 C 48.954829038277296 31.245400783781747 98.14521939666804 C 0.0 **** -0.24
14587 H 48.20726378884325 30.529823533008873 97.80291067895087 H 0.0 **** 0.06
14588 H 49.67454431411704 30.738820371371304 98.78836951788037 H 0.0 **** 0.06
14589 H 48.46404464914241 32.04228019331557 98.70497184926728 H 0.0 **** 0.06
14590 H 49.47147999225808 31.669686140802504 97.2849092547815 H 0.0 **** 0.06
14591 C 80.12584128097939 15.874970202988845 35.41625304759965 C 0.0 **** -0.24
14592 H 79.91619084701495 15.772455335588628 36.48116960818776 H 0.0 **** 0.06
14593 H 79.18746883517218 15.957200276444997 34.86742224308951 H 0.0 **** 0.06
14594 H 80.67478834227722 14.99915336944574 35.06925607916099 H 0.0 **** 0.06
14595 H 80.72578904622372 16.769392380736562 35.24926653343757 H 0.0 **** 0.06
14596 C 105.46954160175255 57.35000576864837 17.44848817676622 C 0.0 **** -0.24
14597 H 106.07540029980373 57.820014319584004 18.22234992189108 H 0.0 **** 0.06
14598 H 106.09063886988156 56.66919477615451 16.864523668226354 H 0.0 **** 0.06
14599 H 105.05708497053138 58.11734999082199 16.79303317602202 H 0.0 **** 0.06
14600 H 104.65605010526207 56.792636511808894 17.91222940783959 H 0.0 **** 0.06
14601 C 83.19594692335022 51.408556986766904 106.68778492692802 C 0.0 **** -0.24
14602 H 82.38316856109094 51.55570756496271 105.9774611690123 H 0.0 **** 0.06
14603 H 83.15054765931781 50.395317443037534 107.08732016834978 H 0.0 **** 0.06
14604 H 83.09905833541704 52.12564113657025 107.50342689797317 H 0.0 **** 0.06
14605 H 84.15045698838024 51.55872604600498 106.1835105528717 H 0.0 **** 0.06
14606 C 25.856978502838835 68.42395535485588 28.67341200610187 C 0.0 **** -0.24
14607 H 26.75945369261199 67.83038695935966 28.52556079063657 H 0.0 **** 0.06
14608 H 25.789463418599947 68.72697012085871 29.71900308503151 H 0.0 **** 0.06
14609 H 24.982839016211365 67.82914563011215 28.40986812645764 H 0.0 **** 0.06
14610 H 25.89757130098025 69.30999709299488 28.039952361992597 H 0.0 **** 0.06
14611 C 90.34815187542229 83.36181202186523 58.81258041578667 C 0.0 **** -0.24
14612 H 89.40611535601504 83.10168931858396 58.32955427368887 H 0.0 **** 0.06
14613 H 90.30354972914324 84.39351366710673 59.16171969553721 H 0.0 **** 0.06
14614 H 91.16419452434101 83.2552558402841 58.09726364608 H 0.0 **** 0.06
14615 H 90.51866657283455 82.69807659133309 59.659957461746046 H 0.0 **** 0.06
14616 C 31.949526889590572 58.86697482827162 71.87103856239712 C 0.0 **** -0.24
14617 H 31.520782501182538 58.96073667063814 72.86836187419365 H 0.0 **** 0.06
14618 H 33.02101858228252 58.67890805867091 71.95182469677307 H 0.0 **** 0.06
14619 H 31.783202411154576 59.79007165851675 71.31551602749045 H 0.0 **** 0.06
14620 H 31.474551244996917 58.036494654539354 71.34821573563369 H 0.0 **** 0.06
14621 C 99.58167824770234 63.65950049438473 104.92815730377797 C 0.0 **** -0.24
14622 H 99.70583354722993 64.74242506177906 104.91740026595227 H 0.0 **** 0.06
14623 H 100.47865595741582 63.195195899080346 105.33926452413209 H 0.0 **** 0.06
14624 H 99.42139800078415 63.30204891626801 103.91104498502705 H 0.0 **** 0.06
14625 H 98.72217726656058 63.39861418537001 105.54522475100165 H 0.0 **** 0.06
14626 C 11.111461196947928 8.792069697303404 30.4815854723509 C 0.0 **** -0.24
14627 H 11.892749664700673 8.31373713326991 29.889792250365645 H 0.0 **** 0.06
14628 H 10.76924364429486 8.103645666022913 31.25472478512161 H 0.0 **** 0.06
14629 H 10.275181724733073 9.055312888704492 29.833628259258774 H 0.0 **** 0.06
14630 H 11.509045711804475 9.69383006759766 30.946860265116612 H 0.0 **** 0.06
14631 C 104.02182640683974 57.26204458397246 28.74545378297325 C 0.0 **** -0.24
14632 H 103.98198852474138 57.71336870179958 27.754129243626267 H 0.0 **** 0.06
14633 H 103.92575257429951 58.0400471164758 29.50348134979116 H 0.0 **** 0.06
14634 H 104.97394584050733 56.747131277274015 28.87235814683487 H 0.0 **** 0.06
14635 H 103.20561868781051 56.547631240340344 28.8518463916407 H 0.0 **** 0.06
14636 C 92.11274945768861 7.698034821302201 51.917420956950025 C 0.0 **** -0.24
14637 H 91.95530580282443 7.312586907490271 50.910166641713545 H 0.0 **** 0.06
14638 H 93.13610422451859 8.064253596526697 52.00960978911871 H 0.0 **** 0.06
14639 H 91.94541287038854 6.9007288583862305 52.64050701998224 H 0.0 **** 0.06
14640 H 91.41555374572894 8.51372200348618 52.10668368712243 H 0.0 **** 0.06
14641 C 58.41380148940493 75.28430834054944 94.98491991131331 C 0.0 **** -0.24
14642 H 58.09347068342993 74.26151470861501 95.18425942572796 H 0.0 **** 0.06
14643 H 57.67766436850894 75.77730072821066 94.35017626603944 H 0.0 **** 0.06
14644 H 59.378887179225444 75.26982590407812 94.47902199132861 H 0.0 **** 0.06
14645 H 58.50416037938521 75.82582854324636 95.92565947146993 H 0.0 **** 0.06
14646 C 38.269123811055096 44.396110636261255 72.17094076394946 C 0.0 **** -0.24
14647 H 37.51824429586992 44.65498401387771 71.42498342535363 H 0.0 **** 0.06
14648 H 37.92245011420033 43.54236649957221 72.75460440055103 H 0.0 **** 0.06
14649 H 38.430892652146866 45.24708095808626 72.83263572357795 H 0.0 **** 0.06
14650 H 39.20369373784237 44.14071005645695 71.67173094119075 H 0.0 **** 0.06
14651 C 47.97460758711475 11.235902359274434 90.63200607628178 C 0.0 **** -0.24
14652 H 47.4885834855232 10.311542216151835 90.32304869511344 H 0.0 **** 0.06
14653 H 48.02820862604263 11.918753866938772 89.78413013725668 H 0.0 **** 0.06
14654 H 48.98213443519049 11.016182052648674 90.98643032101256 H 0.0 **** 0.06
14655 H 47.399954544144016 11.697774802528215 91.4350338496051 H 0.0 **** 0.06
14656 C 55.50949684411415 90.44773010948511 66.02240856724913 C 0.0 **** -0.24
14657 H 54.49532704062182 90.1202951452199 65.7928462999858 H 0.0 **** 0.06
14658 H 55.67398697286737 91.43984308272441 65.60145164383634 H 0.0 **** 0.06
14659 H 56.223557866985516 89.74629680277376 65.58868846229878 H 0.0 **** 0.06
14660 H 55.6445554054566 90.48329390725296 67.10249243656658 H 0.0 **** 0.06
14661 C 9.777032886096407 65.64369682482538 2.07822806777736 C 0.0 **** -0.24
14662 H 9.441356340689438 66.17533724762114 2.9682778144952806 H 0.0 **** 0.06
14663 H 9.711658156001477 66.30524918571905 1.213700715547617 H 0.0 **** 0.06
14664 H 9.14406286210972 64.7703610500879 1.9162234029869012 H 0.0 **** 0.06
14665 H 10.809951161886431 65.32371747022418 2.213833714240053 H 0.0 **** 0.06
14666 C 41.18758789975948 52.11006807710296 11.3162039954708 C 0.0 **** -0.24
14667 H 41.53096978599336 51.807419371422036 12.30588149213969 H 0.0 **** 0.06
14668 H 40.24755345190141 52.655120948279176 11.409956536034542 H 0.0 **** 0.06
14669 H 41.035741858704284 51.22556349695586 10.698466805022974 H 0.0 **** 0.06
14670 H 41.936432867579356 52.75307831759536 10.854124034205654 H 0.0 **** 0.06
14671 C 49.553732278257996 14.880993724910866 66.56964855580878 C 0.0 **** -0.24
14672 H 48.89941574930117 14.01105775856297 66.5109104002641 H 0.0 **** 0.06
14673 H 48.95653512049017 15.771374322082522 66.76108185883078 H 0.0 **** 0.06
14674 H 50.08856099971541 14.996411740171283 65.62637773873445 H 0.0 **** 0.06
14675 H 50.27127369269459 14.741870966729039 67.37859976931759 H 0.0 **** 0.06
14676 C 77.32599151810571 53.39589597726808 87.2417651430352 C 0.0 **** -0.24
14677 H 76.69019301485237 54.141131297491256 87.71833977152482 H 0.0 **** 0.06
14678 H 77.87094288847521 53.857179124739844 86.41709926487181 H 0.0 **** 0.06
14679 H 76.70858466953496 52.582654848298944 86.85932358139883 H 0.0 **** 0.06
14680 H 78.03429751385951 53.002517621312904 87.97056959134193 H 0.0 **** 0.06
14681 C 50.22596824769545 50.072035580675305 47.36458414590575 C 0.0 **** -0.24
14682 H 49.736902819148156 49.13593865434345 47.6363533031103 H 0.0 **** 0.06
14683 H 50.04574743296709 50.81464918783769 48.14126510125965 H 0.0 **** 0.06
14684 H 49.82334112961141 50.430708647119474 46.41775530404445 H 0.0 **** 0.06
14685 H 51.29801393046529 49.90391288073636 47.26234584552569 H 0.0 **** 0.06
14686 C 88.35250858417038 31.02114696937994 74.32529070890001 C 0.0 **** -0.24
14687 H 89.31588824187472 31.359479754260832 74.70787856386124 H 0.0 **** 0.06
14688 H 88.00923360890562 30.166742687764412 74.90888859658787 H 0.0 **** 0.06
14689 H 88.4586542384248 30.72882583771755 73.28049439857574 H 0.0 **** 0.06
14690 H 87.6266690688879 31.830411025203887 74.40363315430136 H 0.0 **** 0.06
14691 C 96.86637213178953 25.51244579730107 80.76744165944523 C 0.0 **** -0.24
14692 H 96.97005903434545 24.486773014010225 81.1216170902866 H 0.0 **** 0.06
14693 H 95.81145874651591 25.78880931216389 80.76037919927238 H 0.0 **** 0.06
14694 H 97.2697497487233 25.590928424077504 79.7581533900655 H 0.0 **** 0.06
14695 H 97.4137456820897 26.181932828141555 81.43134315797008 H 0.0 **** 0.06
14696 C 77.98441632537342 47.73020936742401 21.16838969815862 C 0.0 **** -0.24
14697 H 78.32308076146829 48.746523760395206 20.965147583911943 H 0.0 **** 0.06
14698 H 78.47221340300807 47.35913502282901 22.069880528023926 H 0.0 **** 0.06
14699 H 78.23964048030842 47.08729502049829 20.325104034091755 H 0.0 **** 0.06
14700 H 76.9044916493284 47.72991310111007 21.31209220142675 H 0.0 **** 0.06
14701 C 104.37076058781714 67.76338271518125 43.08176557761759 C 0.0 **** -0.24
14702 H 104.8797271267454 68.4772666448113 43.728538030317395 H 0.0 **** 0.06
14703 H 103.39171221142045 68.15585144693995 42.80674477909341 H 0.0 **** 0.06
14704 H 104.2483989966569 66.81819764106173 43.61002370144291 H 0.0 **** 0.06
14705 H 104.96320401644589 67.60221512791217 42.18175579961694 H 0.0 **** 0.06
14706 C 98.51814253048873 73.14339596873215 87.24384157011892 C 0.0 **** -0.24
14707 H 99.04544740596234 73.39521918340516 88.16420210888072 H 0.0 **** 0.06
14708 H 97.47314571522908 73.43959169487621 87.33125767866407 H 0.0 **** 0.06
14709 H 98.57905326439308 72.0688015178155 87.07172384540563 H 0.0 **** 0.06
14710 H 98.9762436043601 73.67158189463572 86.40689237363657 H 0.0 **** 0.06
14711 C 22.86401994231887 85.28333942173117 19.037734604485266 C 0.0 **** -0.24
14712 H 22.155213496884233 86.04697515689611 19.35754351057699 H 0.0 **** 0.06
14713 H 23.484762517841304 85.67891036599752 18.23349075386697 H 0.0 **** 0.06
14714 H 22.318437799751276 84.409593670518 18.680273572623275 H 0.0 **** 0.06
14715 H 23.49588492417953 84.99916057700585 19.879201116575956 H 0.0 **** 0.06
14716 C 23.287766238241346 70.71983534115492 93.53697918848594 C 0.0 **** -0.24
14717 H 24.24488077520803 70.35308000211558 93.16540527306971 H 0.0 **** 0.06
14718 H 22.54692087154723 70.67490538021059 92.73829568580345 H 0.0 **** 0.06
14719 H 23.399729128163557 71.75189936397533 93.87089097509718 H 0.0 **** 0.06
14720 H 22.96076302247937 70.10113992227588 94.3720376811216 H 0.0 **** 0.06
14721 C 70.72998450080168 86.04307755560515 9.125256262400839 C 0.0 **** -0.24
14722 H 70.97017495903206 87.04725338932377 9.474425699789066 H 0.0 **** 0.06
14723 H 71.25120096334398 85.85086433786199 8.186391288401538 H 0.0 **** 0.06
14724 H 69.65443537635471 85.96103903849954 8.967029686885198 H 0.0 **** 0.06
14725 H 71.04458336372261 85.31415190495136 9.872286936035309 H 0.0 **** 0.06
14726 C 20.817750767300453 66.94085349282469 43.33976040806591 C 0.0 **** -0.24
14727 H 21.69235869312476 67.53737111454488 43.07983623103129 H 0.0 **** 0.06
14728 H 20.583440093109772 67.08046336517312 44.395031202318954 H 0.0 **** 0.06
14729 H 21.0267804148786 65.88800744094628 43.14992188069476 H 0.0 **** 0.06
14730 H 19.96930271947582 67.2588209613605 42.73343501112982 H 0.0 **** 0.06
14731 C 59.41167831440862 49.67434593911992 15.425111264251374 C 0.0 **** -0.24
14732 H 59.21873316388928 50.552963430384295 14.809433309582605 H 0.0 **** 0.06
14733 H 59.10551239002314 48.77933374186938 14.885008147017611 H 0.0 **** 0.06
14734 H 58.845808859028836 49.75048425528678 16.354428032384654 H 0.0 **** 0.06
14735 H 60.47596803870516 49.61672489017255 15.652584437772838 H 0.0 **** 0.06
14736 C 36.718930707591795 0.8479862528678836 92.38585079759909 C 0.0 **** -0.24
14737 H 37.772099869383126 1.0441989656560224 92.1848006782263 H 0.0 **** 0.06
14738 H 36.33805089426188 1.5915748407876151 93.08521507575902 H 0.0 **** 0.06
14739 H 36.611433805983836 -0.14629947301287416 92.8173633566207 H 0.0 **** 0.06
14740 H 36.15601806936894 0.9021645288860611 91.45393291060077 H 0.0 **** 0.06
14741 C 38.396130370573474 25.083920852357636 58.7808103291182 C 0.0 **** -0.24
14742 H 38.24891929308845 24.713030825471453 57.766346745221824 H 0.0 **** 0.06
14743 H 37.42717989332061 25.21022803210399 59.265069962910445 H 0.0 **** 0.06
14744 H 38.912978626272206 26.043715746356465 58.744114501467834 H 0.0 **** 0.06
14745 H 38.99585221869222 24.369782006836495 59.345125203990506 H 0.0 **** 0.06
14746 C 25.965337640218188 96.70783302177108 56.02016935037659 C 0.0 **** -0.24
14747 H 25.661608001686 97.45360601582485 56.75442460875837 H 0.0 **** 0.06
14748 H 25.962225927817247 95.72082562299914 56.48269889165215 H 0.0 **** 0.06
14749 H 26.967841550494487 96.93862753280939 55.661320336333745 H 0.0 **** 0.06
14750 H 25.26857018874132 96.71905677752267 55.18182751954646 H 0.0 **** 0.06
14751 C 11.621293559143837 74.96611433165776 97.3308860676168 C 0.0 **** -0.24
14752 H 10.575219436676932 75.19745872612515 97.12593571098057 H 0.0 **** 0.06
14753 H 11.723830766008064 74.64127572382642 98.36648535454685 H 0.0 **** 0.06
14754 H 12.229368691391358 75.85599441064937 97.16731358667437 H 0.0 **** 0.06
14755 H 11.953933272917581 74.16963730322936 96.66523373486427 H 0.0 **** 0.06
14756 C 49.23311327515933 46.21547914309855 52.73471192994509 C 0.0 **** -0.24
14757 H 49.03241308159429 47.2304197679513 53.07771312572629 H 0.0 **** 0.06
14758 H 48.30361327566012 45.75710011092039 52.395754233033756 H 0.0 **** 0.06
14759 H 49.64974856220912 45.63038380747437 53.554441359707084 H 0.0 **** 0.06
14760 H 49.946420407463656 46.24533608852661 51.91051146534045 H 0.0 **** 0.06
14761 C 103.31332525341347 15.025426103720577 87.27948297173288 C 0.0 **** -0.24
14762 H 104.02913933542425 14.229069296157775 87.48244819496973 H 0.0 **** 0.06
14763 H 102.34370455955957 14.589149245297676 87.03751784392671 H 0.0 **** 0.06
14764 H 103.66357872515232 15.623069649593447 86.43789307026779 H 0.0 **** 0.06
14765 H 103.21687839351779 15.660416223833352 88.16007277776748 H 0.0 **** 0.06
14766 C 75.26569894855504 102.44271382991094 3.4233487009621797 C 0.0 **** -0.24
14767 H 75.02317426891062 103.09682610876311 4.259869285148795 H 0.0 **** 0.06
14768 H 75.36022592738232 103.03582117336707 2.5134843068618693 H 0.0 **** 0.06
14769 H 74.4740438932746 101.70506012600066 3.2970431763627914 H 0.0 **** 0.06
14770 H 76.2082436744285 101.93248880454381 3.6234480740698984 H 0.0 **** 0.06
14771 C 80.89710737296745 10.574146881465964 81.54729596709592 C 0.0 **** -0.24
14772 H 80.7496905776597 11.298164213067878 82.34856998321644 H 0.0 **** 0.06
14773 H 81.44103306025086 9.711779535020824 81.93319528957551 H 0.0 **** 0.06
14774 H 81.47003624257707 11.03456157565428 80.74245456785002 H 0.0 **** 0.06
14775 H 79.92899692791778 10.252468028279878 81.16600782735333 H 0.0 **** 0.06
14776 C 104.70147006207834 22.6759152983513 55.552568771309325 C 0.0 **** -0.24
14777 H 104.65085565519577 21.62514860750747 55.838534544997685 H 0.0 **** 0.06
14778 H 105.73776884430626 22.948667344789556 55.35280635250808 H 0.0 **** 0.06
14779 H 104.3129087774576 23.2912227928245 56.36350935750781 H 0.0 **** 0.06
14780 H 104.10325578639205 22.83584476442718 54.65511785515659 H 0.0 **** 0.06
14781 C 79.65349212128723 89.6919699437714 66.50247704748999 C 0.0 **** -0.24
14782 H 80.28252311122336 88.80560308420951 66.58420013152482 H 0.0 **** 0.06
14783 H 78.60476224699994 89.39818341335143 66.55734999932496 H 0.0 **** 0.06
14784 H 79.84429786914694 90.1848048567951 65.54937119887227 H 0.0 **** 0.06
14785 H 79.88286639662414 90.37724364385713 67.31772682443246 H 0.0 **** 0.06
14786 C 11.908489980611677 12.582761474420735 44.39022836647126 C 0.0 **** -0.24
14787 H 11.299174894122842 12.372192751045297 45.26851519115702 H 0.0 **** 0.06
14788 H 11.599454361817891 11.934271765789909 43.57008022357134 H 0.0 **** 0.06
14789 H 12.95802664372657 12.398242623657463 44.62377397160313 H 0.0 **** 0.06
14790 H 11.779008046852653 13.625273115468165 44.09994443913433 H 0.0 **** 0.06
14791 C 6.602865849568163 19.098773950851353 50.47234737231237 C 0.0 **** -0.24
14792 H 7.221900167164398 19.97903717544665 50.29975241243812 H 0.0 **** 0.06
14793 H 7.2396942837964104 18.21798996298378 50.55443253381315 H 0.0 **** 0.06
14794 H 5.91091745802172 18.9722830951045 49.63959749496384 H 0.0 **** 0.06
14795 H 6.03893941911703 19.227663480840874 51.39682094771297 H 0.0 **** 0.06
14796 C 91.00969568498384 35.50426173895241 23.230185152987872 C 0.0 **** -0.24
14797 H 90.25515095540916 36.21077347241061 23.5759354701037 H 0.0 **** 0.06
14798 H 90.98982486989951 34.614200463480955 23.86005498180421 H 0.0 **** 0.06
14799 H 91.994509646565 35.96826410445668 23.28629343436998 H 0.0 **** 0.06
14800 H 90.79837726851227 35.223945964452525 22.198089481953616 H 0.0 **** 0.06
14801 C 51.76715116142817 58.028643982059435 50.93957755640315 C 0.0 **** -0.24
14802 H 51.096783561313565 58.15979376621476 50.08953348051713 H 0.0 **** 0.06
14803 H 52.58137243212965 57.35931413241204 50.659973927513164 H 0.0 **** 0.06
14804 H 51.21451983587863 57.59989980464829 51.775209581895524 H 0.0 **** 0.06
14805 H 52.17538405033388 58.99600784182576 51.231469509082615 H 0.0 **** 0.06
14806 C 105.55380526819704 14.019251256395506 102.64485094494202 C 0.0 **** -0.24
14807 H 104.735267286105 14.687724981337624 102.9119245651187 H 0.0 **** 0.06
14808 H 106.01437548274032 14.362352188824815 101.7181165064007 H 0.0 **** 0.06
14809 H 105.16818927057699 13.009351500723483 102.50729142932738 H 0.0 **** 0.06
14810 H 106.29708760316913 14.01918945946332 103.4426255184782 H 0.0 **** 0.06
14811 C 103.53125991286578 33.61178617707736 20.12867927065693 C 0.0 **** -0.24
14812 H 104.41234421098558 33.60630998903554 19.487448184943247 H 0.0 **** 0.06
14813 H 103.81545117468832 33.31397382775029 21.138266822783606 H 0.0 **** 0.06
14814 H 102.79415427969626 32.910679345144615 19.736478571338154 H 0.0 **** 0.06
14815 H 103.10365459910794 34.61401798836903 20.15079127226997 H 0.0 **** 0.06
14816 C 90.64329141065457 78.50737456261271 70.2543578699682 C 0.0 **** -0.24
14817 H 90.88723731211874 79.4716958869111 69.80916171058615 H 0.0 **** 0.06
14818 H 91.5495895951527 77.90688133953552 70.33941906978217 H 0.0 **** 0.06
14819 H 89.92085485425565 77.98862370393252 69.62375192281564 H 0.0 **** 0.06
14820 H 90.2163320501212 78.66342858275453 71.24512964952766 H 0.0 **** 0.06
14821 C 30.83611762585963 15.474145692508117 55.67988349451969 C 0.0 **** -0.24
14822 H 31.49189819018187 16.303451809982647 55.94469299077597 H 0.0 **** 0.06
14823 H 30.099178975989105 15.812805318899166 54.95157864640634 H 0.0 **** 0.06
14824 H 30.32605579598888 15.115324225856497 56.574057955133185 H 0.0 **** 0.06
14825 H 31.428713319663103 14.665920388759389 55.249717094498116 H 0.0 **** 0.06
14826 C 60.168351033230294 13.181662899406533 91.08653124509723 C 0.0 **** -0.24
14827 H 59.68917487839431 12.622491262619974 91.88976043078517 H 0.0 **** 0.06
14828 H 60.3857735305798 14.194289562940398 91.42784871433373 H 0.0 **** 0.06
14829 H 59.501087499056666 13.22402419722161 90.22533975149993 H 0.0 **** 0.06
14830 H 61.09662235269337 12.687034588558475 90.80215998991636 H 0.0 **** 0.06
14831 C 8.282412887839712 1.26445724185362 107.20258453229343 C 0.0 **** -0.24
14832 H 8.482073076291655 0.25526230881838785 106.84338232869885 H 0.0 **** 0.06
14833 H 7.249930819532494 1.5332302974874494 106.97636836933003 H 0.0 **** 0.06
14834 H 8.957142272702953 1.9648721595042815 106.70877065798197 H 0.0 **** 0.06
14835 H 8.44197192270309 1.3056476363392022 108.2794824233705 H 0.0 **** 0.06
14836 C 13.363034164575708 10.932813095338105 71.48863951096774 C 0.0 **** -0.24
14837 H 14.12719736584205 11.578245663525081 71.92147695609674 H 0.0 **** 0.06
14838 H 12.407216301694433 11.122579108582016 71.97870585225246 H 0.0 **** 0.06
14839 H 13.644164571074839 9.889631823950651 71.63220615584612 H 0.0 **** 0.06
14840 H 13.272478590167282 11.142649908793146 70.42335081210297 H 0.0 **** 0.06
14841 C 66.42310936225618 69.13804943859179 30.191938961396716 C 0.0 **** -0.24
14842 H 66.55663398306723 69.93907513330782 29.464380090534718 H 0.0 **** 0.06
14843 H 66.00518125268394 69.54826933407224 31.110890843674866 H 0.0 **** 0.06
14844 H 67.38754356450835 68.67677129962664 30.404748773542764 H 0.0 **** 0.06
14845 H 65.74438431423914 68.38815830745267 29.78592239566818 H 0.0 **** 0.06
14846 C 59.62711488802299 41.88999354371171 96.11688656288854 C 0.0 **** -0.24
14847 H 60.684552414721395 42.106249780676606 95.96848870585865 H 0.0 **** 0.06
14848 H 59.05903480690989 42.82050074257495 96.09494837515162 H 0.0 **** 0.06
14849 H 59.4880159104664 41.401276374099496 97.08105815129883 H 0.0 **** 0.06
14850 H 59.276291430805486 41.23112555046282 95.32297617643307 H 0.0 **** 0.06
14851 C 68.6466645644748 39.987539489548595 23.443763609730997 C 0.0 **** -0.24
14852 H 68.52718019964057 41.06885689596044 23.506532908274053 H 0.0 **** 0.06
14853 H 68.07508823109977 39.512426213257356 24.241593651704413 H 0.0 **** 0.06
14854 H 69.70148920203597 39.73163545797195 23.549928758775867 H 0.0 **** 0.06
14855 H 68.28367285993708 39.63838570185095 22.477298659697627 H 0.0 **** 0.06
14856 C 75.77355142656424 94.87890522034529 76.11725136928476 C 0.0 **** -0.24
14857 H 75.06294018134571 94.8760246166044 76.94399633752914 H 0.0 **** 0.06
14858 H 76.52353269719805 94.10575055491113 76.28043151260738 H 0.0 **** 0.06
14859 H 76.2598866139437 95.85257828461336 76.06172939127117 H 0.0 **** 0.06
14860 H 75.24495566357047 94.68350722843188 75.18364113857155 H 0.0 **** 0.06
14861 C 91.93268140636364 32.89136631399674 28.624063293624715 C 0.0 **** -0.24
14862 H 91.1318822017849 32.84246898228042 29.362359697788463 H 0.0 **** 0.06
14863 H 91.7152477936007 32.20343257485894 27.80644803959214 H 0.0 **** 0.06
14864 H 92.87641148303368 32.612365920094646 29.09252052419339 H 0.0 **** 0.06
14865 H 92.0064293483611 33.906814115737234 28.235457013665865 H 0.0 **** 0.06
14866 C 81.25224703204417 9.014404976286073 47.05395728818718 C 0.0 **** -0.24
14867 H 80.55352105953783 9.85013922288988 47.09720274345085 H 0.0 **** 0.06
14868 H 80.86697786216529 8.254893357249586 46.37219139776974 H 0.0 **** 0.06
14869 H 81.36697376936745 8.5852243217426 48.04908872783068 H 0.0 **** 0.06
14870 H 82.21871526331891 9.367299087722927 46.696952154355216 H 0.0 **** 0.06
14871 C 63.965936645892555 88.1860156030703 28.588690885450944 C 0.0 **** -0.24
14872 H 63.32987837538559 88.9149519500121 28.085811598935152 H 0.0 **** 0.06
14873 H 64.20634498236603 88.54391453521731 29.590246222895303 H 0.0 **** 0.06
14874 H 64.88618048822428 88.05261954862698 28.019136083096498 H 0.0 **** 0.06
14875 H 63.44071409817428 87.2338537572009 28.658583095148572 H 0.0 **** 0.06
14876 C 82.59909229119015 87.03844599088967 82.52235085002067 C 0.0 **** -0.24
14877 H 83.55561160989349 87.33636710402504 82.09339555382746 H 0.0 **** 0.06
14878 H 82.77243122412152 86.42271825380226 83.40543911089736 H 0.0 **** 0.06
14879 H 82.03299116998234 86.46727555032561 81.78617441774465 H 0.0 **** 0.06
14880 H 82.03445717147488 87.92767865780576 82.80398953153532 H 0.0 **** 0.06
14881 C 62.8130154015677 88.97743591803135 11.615739661833828 C 0.0 **** -0.24
14882 H 61.91189112107686 88.57297544124437 12.07555436870527 H 0.0 **** 0.06
14883 H 63.17256122580092 88.28659910880292 10.852575060614043 H 0.0 **** 0.06
14884 H 63.58114463533448 89.10978227183996 12.377992775473047 H 0.0 **** 0.06
14885 H 62.586464624058536 89.94038685023806 11.156836442542982 H 0.0 **** 0.06
14886 C 83.7586367542792 41.74467458983975 29.273266074582637 C 0.0 **** -0.24
14887 H 82.76016006833308 41.89902215212925 29.6822134999627 H 0.0 **** 0.06
14888 H 83.68780966893192 41.56821795437523 28.200032438679273 H 0.0 **** 0.06
14889 H 84.2191221032067 40.881940959590196 29.754660704497837 H 0.0 **** 0.06
14890 H 84.36689020802223 42.63107021849237 29.45667667574031 H 0.0 **** 0.06
14891 C 100.12646601623747 32.65262902278778 7.185770022482643 C 0.0 **** -0.24
14892 H 99.03878571307324 32.583507908217285 7.161817826484707 H 0.0 **** 0.06
14893 H 100.43523000793427 33.635713213310325 6.83098824000804 H 0.0 **** 0.06
14894 H 100.55401475720029 31.882685683361842 6.544018388696756 H 0.0 **** 0.06
14895 H 100.47653463635343 32.50886402859376 8.208057878332852 H 0.0 **** 0.06
14896 C 52.65587658739955 59.920265224980554 88.5573818828719 C 0.0 **** -0.24
14897 H 51.756103962820156 59.86090356845261 89.16911895317949 H 0.0 **** 0.06
14898 H 52.986088824757616 60.957903036366574 88.49701154949268 H 0.0 **** 0.06
14899 H 52.438505046769116 59.54906170555742 87.55601411434844 H 0.0 **** 0.06
14900 H 53.44204589709514 59.31364038992932 89.0069160762603 H 0.0 **** 0.06
14901 C 42.00133545598709 18.882811193029568 84.17628854550321 C 0.0 **** -0.24
14902 H 42.73898243919285 18.601438843930907 84.92839653983702 H 0.0 **** 0.06
14903 H 42.51065849817064 19.283605221854714 83.30006880488867 H 0.0 **** 0.06
14904 H 41.333969335851236 19.63973263505642 84.58722918587952 H 0.0 **** 0.06
14905 H 41.422551828681776 18.00446179727834 83.89000942996825 H 0.0 **** 0.06
14906 C 53.12449834719973 6.661005075111632 65.41106926254658 C 0.0 **** -0.24
14907 H 53.90051995742522 6.476310225759903 66.15445488125638 H 0.0 **** 0.06
14908 H 53.08263002500598 7.727580217810143 65.18917650655496 H 0.0 **** 0.06
14909 H 52.16193274679529 6.3322682333283495 65.80209661119964 H 0.0 **** 0.06
14910 H 53.355580881996275 6.108527747231321 64.50010683386589 H 0.0 **** 0.06
14911 C 19.10998799057569 12.430657446084759 50.20065518405329 C 0.0 **** -0.24
14912 H 18.55836033886243 12.317618809543816 49.26729133720647 H 0.0 **** 0.06
14913 H 20.116471889599865 12.792243036168145 49.986288757415366 H 0.0 **** 0.06
14914 H 19.169996842363133 11.466527244244695 50.70568761871306 H 0.0 **** 0.06
14915 H 18.595663760775068 13.14654893108094 50.84208316082558 H 0.0 **** 0.06
14916 C 34.35573377027761 74.47993841648508 93.4723358539814 C 0.0 **** -0.24
14917 H 33.88651118399372 74.31285972022663 92.50203136048032 H 0.0 **** 0.06
14918 H 35.032493295408784 75.33161401745869 93.40598028069604 H 0.0 **** 0.06
14919 H 34.916161133546694 73.59092306777895 93.76189025618936 H 0.0 **** 0.06
14920 H 33.585857851596174 74.68432691771258 94.21692252649939 H 0.0 **** 0.06
14921 C 18.275650392129705 81.50336392302383 21.03083424982964 C 0.0 **** -0.24
14922 H 19.23703931004968 81.0169611378678 20.86600543385447 H 0.0 **** 0.06
14923 H 17.627631441594986 81.32723607124626 20.173056181186666 H 0.0 **** 0.06
14924 H 18.42852449889756 82.57491800882904 21.158027786888226 H 0.0 **** 0.06
14925 H 17.811676044335513 81.09369054930417 21.9280986473251 H 0.0 **** 0.06
14926 C 37.01755022296493 42.19021929797509 80.58351407057967 C 0.0 **** -0.24
14927 H 38.03094705452776 41.89054503188265 80.31945540248799 H 0.0 **** 0.06
14928 H 37.05633217486451 43.00548206855774 81.30598928793796 H 0.0 **** 0.06
14929 H 36.49030235993882 41.34186506858072 81.01964896501067 H 0.0 **** 0.06
14930 H 36.4921810095741 42.52221202742726 79.68786241035357 H 0.0 **** 0.06
14931 C 12.510703955225466 19.650816756560904 50.88471322396067 C 0.0 **** -0.24
14932 H 12.63915506906828 20.664840033084808 51.26394401380051 H 0.0 **** 0.06
14933 H 12.584251819841711 19.6581669405102 49.79670513329848 H 0.0 **** 0.06
14934 H 11.532187455624538 19.273454212410762 51.18091891337725 H 0.0 **** 0.06
14935 H 13.288345542614124 19.007593606473872 51.29694424980814 H 0.0 **** 0.06
14936 C 23.18690161580588 4.48392057900702 16.43059679577985 C 0.0 **** -0.24
14937 H 22.698819476344454 4.520080899700304 17.40422562088503 H 0.0 **** 0.06
14938 H 22.74005727809771 5.229084014293932 15.772058656346303 H 0.0 **** 0.06
14939 H 23.057873556544905 3.4911537049996184 15.996865693800913 H 0.0 **** 0.06
14940 H 24.2496136555323 4.692758085141321 16.547945901099013 H 0.0 **** 0.06
14941 C 15.247791251089751 46.39772972698779 102.8700077765555 C 0.0 **** -0.24
14942 H 14.19048085600221 46.469694396725686 102.6134366982354 H 0.0 **** 0.06
14943 H 15.47390399646855 45.38303929465735 103.19685053517718 H 0.0 **** 0.06
14944 H 15.475503404672097 47.09815921384609 103.673182442928 H 0.0 **** 0.06
14945 H 15.850537202311585 46.640609216989674 101.99430018426659 H 0.0 **** 0.06
14946 C 86.8024682090049 79.65750162504506 40.7704292890719 C 0.0 **** -0.24
14947 H 85.72378804120876 79.52776035702199 40.86334434495626 H 0.0 **** 0.06
14948 H 87.01228273547606 80.58637544948013 40.23877600493432 H 0.0 **** 0.06
14949 H 87.22210595440954 78.81812283611298 40.21536595337972 H 0.0 **** 0.06
14950 H 87.25069840521067 79.69729659071304 41.762888801547604 H 0.0 **** 0.06
14951 C 29.97924217255502 9.859594278295532 53.24214563107699 C 0.0 **** -0.24
14952 H 30.801022966432242 9.144485601973827 53.27752590706486 H 0.0 **** 0.06
14953 H 30.310888656250683 10.814109665800743 53.65110022465893 H 0.0 **** 0.06
14954 H 29.143085873584255 9.481994220191552 53.830792138028166 H 0.0 **** 0.06
14955 H 29.661954394965534 9.996869057350693 52.20808905691648 H 0.0 **** 0.06
14956 C 48.025423891787796 75.7853536564536 50.58666604545829 C 0.0 **** -0.24
14957 H 48.41368831335643 76.79616714614208 50.46141950789388 H 0.0 **** 0.06
14958 H 47.32948319552531 75.76612400413313 51.426617077391484 H 0.0 **** 0.06
14959 H 48.851274112813485 75.10155652920048 50.7824356961151 H 0.0 **** 0.06
14960 H 47.50736843358388 75.47942010317036 49.678548214553814 H 0.0 **** 0.06
14961 C 6.70008447226617 14.184255917163696 60.13339706353054 C 0.0 **** -0.24
14962 H 6.036742518704642 14.412295323260338 60.96706623775292 H 0.0 **** 0.06
14963 H 6.34358214921923 13.292796469670904 59.61848935134121 H 0.0 **** 0.06
14964 H 7.708333391408274 14.008045311665484 60.509948344920645 H 0.0 **** 0.06
14965 H 6.713868958557782 15.02535800708631 59.43951366132602 H 0.0 **** 0.06
14966 C 83.06069078111022 91.82772017121357 16.13272568118589 C 0.0 **** -0.24
14967 H 83.75323655136418 91.4944548727889 16.905491782882564 H 0.0 **** 0.06
14968 H 82.12838024219135 92.15234355055176 16.595415222673182 H 0.0 **** 0.06
14969 H 82.85959364055577 91.00539841335222 15.446239905155181 H 0.0 **** 0.06
14970 H 83.50294740897778 92.65852104077567 15.583587431314697 H 0.0 **** 0.06
14971 C 59.31983566635614 7.977154509205251 97.5855014651745 C 0.0 **** -0.24
14972 H 59.28103625107906 8.5848923093385 98.48942249388398 H 0.0 **** 0.06
14973 H 60.17216731696999 8.282093263138432 96.97805846870861 H 0.0 **** 0.06
14974 H 58.400317001773544 8.112866230878607 97.01662925638337 H 0.0 **** 0.06
14975 H 59.42632114162598 6.926938326319542 97.85944806106312 H 0.0 **** 0.06
14976 C 68.23489422260332 8.631002648327637 6.687594718748983 C 0.0 **** -0.24
14977 H 67.75870322965312 7.8829049232355 6.053511275125601 H 0.0 **** 0.06
14978 H 69.12816324287536 9.01189746602546 6.192198438257861 H 0.0 **** 0.06
14979 H 68.51276024586207 8.176739929204132 7.639144908449566 H 0.0 **** 0.06
14980 H 67.54020343983456 9.451774423666578 6.86619840114588 H 0.0 **** 0.06
14981 C 73.54740889367272 7.892579549301638 47.380954654494445 C 0.0 **** -0.24
14982 H 74.07671671410925 7.565904108835156 46.48534017490092 H 0.0 **** 0.06
14983 H 73.50036199573921 7.069576889596114 48.09495054804048 H 0.0 **** 0.06
14984 H 72.53721167953323 8.201027776429719 47.114139962335166 H 0.0 **** 0.06
14985 H 74.07754761208686 8.732857388725856 47.82988113200622 H 0.0 **** 0.06
14986 C 46.28586561958709 44.34013369876544 88.3805470908882 C 0.0 **** -0.24
14987 H 45.92201545102167 43.35694885711092 88.6811873256803 H 0.0 **** 0.06
14988 H 46.493890690110355 44.338300256877005 87.31115847547136 H 0.0 **** 0.06
14989 H 47.19976102879357 44.57162027433418 88.92849604479508 H 0.0 **** 0.06
14990 H 45.527408596050265 45.09118906793037 88.60327490945085 H 0.0 **** 0.06
14991 C 80.46898331002754 79.14697297404706 108.52065172073259 C 0.0 **** -0.24
14992 H 80.71957962787116 80.1480623973805 108.16965838904406 H 0.0 **** 0.06
14993 H 81.35411860438813 78.51272556228855 108.47109771973547 H 0.0 **** 0.06
14994 H 79.68483784433471 78.7272489409379 107.89090854726547 H 0.0 **** 0.06
14995 H 80.11756116185194 79.20132354112985 109.55184590113834 H 0.0 **** 0.06
14996 C 16.91416987190322 55.084465784225415 3.4293051188685695 C 0.0 **** -0.24
14997 H 17.383273984482205 56.05549444495074 3.274820584232913 H 0.0 **** 0.06
14998 H 15.990758027564421 55.03116381396666 2.8513480257490755 H 0.0 **** 0.06
14999 H 16.68867489703648 54.953643590054924 4.487811825430555 H 0.0 **** 0.06
15000 H 17.593556823007575 54.29666662886558 3.1034036922916926 H 0.0 **** 0.06
15001 C 34.44247647993436 104.54170683082089 44.67159088450296 C 0.0 **** -0.24
15002 H 35.2573289435551 103.94694792563095 44.25724050706128 H 0.0 **** 0.06
15003 H 34.854147554257885 105.38479670698058 45.225785088774686 H 0.0 **** 0.06
15004 H 33.84578351185582 103.92171803252802 45.34166798531578 H 0.0 **** 0.06
15005 H 33.813317138601846 104.91046509819171 43.8620473826912 H 0.0 **** 0.06
15006 C 66.28279043475794 35.08048579960581 24.235130643175665 C 0.0 **** -0.24
15007 H 66.6611313396806 34.46936273753465 23.41594592352493 H 0.0 **** 0.06
15008 H 65.46629932311811 34.555418396023924 24.73332284589341 H 0.0 **** 0.06
15009 H 65.91701907422512 36.02919236128761 23.841843146487776 H 0.0 **** 0.06
15010 H 67.08397975348169 35.2675883128519 24.95003496079144 H 0.0 **** 0.06
15011 C 95.48400137413296 23.983094777109045 74.78652319555351 C 0.0 **** -0.24
15012 H 94.4146693947475 24.114864760442202 74.9523865872203 H 0.0 **** 0.06
15013 H 95.76538397262095 22.95907240979929 75.03117777985562 H 0.0 **** 0.06
15014 H 96.03731198031909 24.67393215697794 75.42157900549518 H 0.0 **** 0.06
15015 H 95.7164129404415 24.184644995296566 73.74080275489382 H 0.0 **** 0.06
15016 C 43.521106907015565 17.075056178607042 32.88879814134853 C 0.0 **** -0.24
15017 H 44.014320624290235 16.7290324613121 33.79656222207005 H 0.0 **** 0.06
15018 H 43.94582107492661 16.560998943613328 32.02595229795875 H 0.0 **** 0.06
15019 H 43.669802973943035 18.14978835002225 32.78109421706186 H 0.0 **** 0.06
15020 H 42.45392189397842 16.86074888106225 32.95033201854223 H 0.0 **** 0.06
15021 C 46.173316630716776 54.353150199138554 3.0801067879273205 C 0.0 **** -0.24
15022 H 47.018000229953074 53.91751891518953 3.6138762780090303 H 0.0 **** 0.06
15023 H 45.54247900670683 53.556161620487046 2.6860966671809194 H 0.0 **** 0.06
15024 H 46.54152059489521 54.96508993362971 2.2568987666541886 H 0.0 **** 0.06
15025 H 45.59345708069806 54.972940209583015 3.762914985215616 H 0.0 **** 0.06
15026 C 17.578662046472683 12.833950160337377 54.842300673945026 C 0.0 **** -0.24
15027 H 16.894151064203832 12.96910607670069 55.67975303620473 H 0.0 **** 0.06
15028 H 17.317089283838754 11.922655500110867 54.30314145054725 H 0.0 **** 0.06
15029 H 18.598864907024005 12.75473647675712 55.21667500064979 H 0.0 **** 0.06
15030 H 17.502423790056227 13.688237844479797 54.17024628373138 H 0.0 **** 0.06
15031 C 50.17099426652328 79.56441892248489 107.16225592468675 C 0.0 **** -0.24
15032 H 49.89092155897151 79.60153797887585 106.11007473397768 H 0.0 **** 0.06
15033 H 49.270577762230744 79.51134078314908 107.77572864869398 H 0.0 **** 0.06
15034 H 50.73443452513101 80.4609435756901 107.42015021716884 H 0.0 **** 0.06
15035 H 50.786056266922856 78.68282756045565 107.34307427059434 H 0.0 **** 0.06
15036 C 37.399719662989526 57.37378866544111 13.14720829568904 C 0.0 **** -0.24
15037 H 36.56568191318394 56.993169130437366 12.55883800937113 H 0.0 **** 0.06
15038 H 37.03919323869579 57.684445852601016 14.128636210174932 H 0.0 **** 0.06
15039 H 37.84634788524133 58.226932501471765 12.636893028291752 H 0.0 **** 0.06
15040 H 38.14714669750157 56.58895313904088 13.266199560602729 H 0.0 **** 0.06
15041 C 108.15844789820854 53.23377069043141 100.8737342181167 C 0.0 **** -0.24
15042 H 109.10006289778494 52.685009848740776 100.85174325684314 H 0.0 **** 0.06
15043 H 107.41709949507505 52.70615849667087 100.27415707553575 H 0.0 **** 0.06
15044 H 108.31155236906561 54.23345655657738 100.46577575226 H 0.0 **** 0.06
15045 H 107.8071636038416 53.31124870578168 101.90311869985554 H 0.0 **** 0.06
15046 C 91.31510078209263 8.896444564700118 67.73738876506813 C 0.0 **** -0.24
15047 H 90.85754047385657 9.881837864388089 67.64806080529448 H 0.0 **** 0.06
15048 H 90.85041116891065 8.21458680968317 67.02432040255677 H 0.0 **** 0.06
15049 H 91.16970067583173 8.517809453582345 68.7487908078914 H 0.0 **** 0.06
15050 H 92.38180596401173 8.970692342720469 67.52720751417877 H 0.0 **** 0.06
15051 C 108.9231487802479 27.227071903598215 12.533495117513553 C 0.0 **** -0.24
15052 H 109.6415859262471 27.965448727603018 12.176981984849817 H 0.0 **** 0.06
15053 H 108.0225539500069 27.73466409393893 12.879990452173274 H 0.0 **** 0.06
15054 H 109.36098723124873 26.662483481420566 13.357018823922942 H 0.0 **** 0.06
15055 H 108.66782111761519 26.546792098176212 11.720803877818753 H 0.0 **** 0.06
15056 C 83.09850176697907 61.69278150916119 106.14051830101776 C 0.0 **** -0.24
15057 H 83.86974734815784 61.215066691249206 106.74550236352303 H 0.0 **** 0.06
15058 H 83.25986513583923 62.77114537451109 106.13167838319595 H 0.0 **** 0.06
15059 H 82.11780112521274 61.474424939565836 106.56401748387987 H 0.0 **** 0.06
15060 H 83.1477983884431 61.30974868958157 105.1208867009909 H 0.0 **** 0.06
15061 C 70.53238966237836 108.88883782139942 57.20657005414233 C 0.0 **** -0.24
15062 H 69.46223676520327 109.08502233899995 57.142944129591456 H 0.0 **** 0.06
15063 H 71.07474348163822 109.64226989777602 56.635007875902204 H 0.0 **** 0.06
15064 H 70.74529006429333 107.90055262681182 56.79966634108587 H 0.0 **** 0.06
15065 H 70.84759343054372 108.92758722581829 58.24961078466532 H 0.0 **** 0.06
15066 C 23.70416599922791 68.81481092339865 70.43050088033462 C 0.0 **** -0.24
15067 H 24.579971130289536 69.39375629162821 70.13689142541612 H 0.0 **** 0.06
15068 H 22.80792762155636 69.28184719330707 70.02290460152388 H 0.0 **** 0.06
15069 H 23.63634759331343 68.78638724942701 71.51850440709676 H 0.0 **** 0.06
15070 H 23.794352704833855 67.79922218824936 70.0448770347317 H 0.0 **** 0.06
15071 C 0.5243971540019743 47.33164191572322 82.74605844294487 C 0.0 **** -0.24
15072 H -0.524862094512855 47.28443465465129 82.45572357456757 H 0.0 **** 0.06
15073 H 1.1267398566437805 46.7796400194861 82.02423155166929 H 0.0 **** 0.06
15074 H 0.6478678191472795 46.88986534204116 83.73578436945056 H 0.0 **** 0.06
15075 H 0.8484404956698768 48.372769406878376 82.77086561363859 H 0.0 **** 0.06
15076 C 66.19804529762146 12.340008605805359 91.07220956053266 C 0.0 **** -0.24
15077 H 66.130519044115 11.349347163575366 91.52290349710744 H 0.0 **** 0.06
15078 H 66.95663618916774 12.924447797592364 91.59208023068223 H 0.0 **** 0.06
15079 H 65.23364868484063 12.841443876851816 91.15274961087951 H 0.0 **** 0.06
15080 H 66.4698154062538 12.242255258350891 90.02077663578626 H 0.0 **** 0.06
15081 C 40.07990608136661 72.54419536893461 8.795585573551747 C 0.0 **** -0.24
15082 H 39.22066947773793 73.10034267154266 8.419684603775181 H 0.0 **** 0.06
15083 H 40.7673964825458 72.34115061551755 7.974406150497032 H 0.0 **** 0.06
15084 H 39.74248301719832 71.60275321924362 9.228213797145486 H 0.0 **** 0.06
15085 H 40.58768718963104 73.13342895470596 9.558228294254718 H 0.0 **** 0.06
15086 C 76.1524052873225 55.157213922737725 38.27033304111962 C 0.0 **** -0.24
15087 H 76.31206705595639 55.592046906986766 39.25682847499519 H 0.0 **** 0.06
15088 H 77.07781179205725 54.69614748799145 37.92237829884787 H 0.0 **** 0.06
15089 H 75.85017348675458 55.938593759314095 37.57345046466197 H 0.0 **** 0.06
15090 H 75.36994842901092 54.400862264014314 38.32930999273023 H 0.0 **** 0.06
15091 C 22.198101183350246 106.20815007487649 34.356332541886204 C 0.0 **** -0.24
15092 H 22.919155866978485 106.93831350102408 33.98737532019072 H 0.0 **** 0.06
15093 H 21.324942636240024 106.19917797573493 33.70426084672162 H 0.0 **** 0.06
15094 H 21.894262152472436 106.47868477376832 35.368218280797876 H 0.0 **** 0.06
15095 H 22.654915565091557 105.21912180381389 34.366457083431335 H 0.0 **** 0.06
15096 C 73.46732662866128 74.27647669553426 18.890338240903656 C 0.0 **** -0.24
15097 H 73.8169598765096 75.2408015724742 19.258339547551383 H 0.0 **** 0.06
15098 H 72.64170259063428 74.43110803102249 18.195354799155197 H 0.0 **** 0.06
15099 H 73.12749609867114 73.66873661292095 19.728833355086834 H 0.0 **** 0.06
15100 H 74.28266061745438 73.76574550387804 18.37809904376917 H 0.0 **** 0.06
15101 C 64.281452507611 37.642976630419106 88.07835777925567 C 0.0 **** -0.24
15102 H 63.5750400849721 36.89225894396575 87.72479691764318 H 0.0 **** 0.06
15103 H 63.81670113522438 38.62816800165815 88.0342441872387 H 0.0 **** 0.06
15104 H 65.17114731206675 37.63133681217185 87.44910384751682 H 0.0 **** 0.06
15105 H 64.56208652310113 37.42024629209599 89.10816584246061 H 0.0 **** 0.06
15106 C 77.81420452427724 4.656725813701826 85.17195405541659 C 0.0 **** -0.24
15107 H 77.87393722000951 3.5735611063492456 85.06965525616025 H 0.0 **** 0.06
15108 H 76.89338616427224 5.014366031049292 84.70873596512041 H 0.0 **** 0.06
15109 H 78.67145721529963 5.1157728626070025 84.6799058109324 H 0.0 **** 0.06
15110 H 77.81604550759069 4.922460927147483 86.22882552276329 H 0.0 **** 0.06
15111 C 85.87205504887561 99.73982967685909 108.27050711728737 C 0.0 **** -0.24
15112 H 85.76937139259468 98.76233806000744 107.79879312436924 H 0.0 **** 0.06
15113 H 86.87391852824834 99.83834950297688 108.68716911872264 H 0.0 **** 0.06
15114 H 85.13496196395775 99.837785155678 109.0676434813007 H 0.0 **** 0.06
15115 H 85.7083862155107 100.52048704698316 107.52658741566484 H 0.0 **** 0.06
15116 C 91.23845021472222 38.668369976614315 68.24034146992904 C 0.0 **** -0.24
15117 H 91.30721526796069 38.81678008414334 69.31793771347216 H 0.0 **** 0.06
15118 H 90.39714040782516 38.01300145482292 68.01678223284847 H 0.0 **** 0.06
15119 H 92.16059608520976 38.21357844337071 67.87713275854261 H 0.0 **** 0.06
15120 H 91.09097683231082 39.630806466955775 67.74955383089758 H 0.0 **** 0.06
15121 C 22.1170248870919 0.4290265324054303 72.81136931663076 C 0.0 **** -0.24
15122 H 22.639213334752128 -0.18616776525647083 73.54376677515586 H 0.0 **** 0.06
15123 H 21.138380253392512 0.7082879225863792 73.20220257911262 H 0.0 **** 0.06
15124 H 21.9913266368483 -0.135400532892902 71.88681431309936 H 0.0 **** 0.06
15125 H 22.69962921931881 1.3282356336601424 72.61082991031168 H 0.0 **** 0.06
15126 C 60.50008606656294 55.33153915951817 45.745625347339235 C 0.0 **** -0.24
15127 H 60.9952983381676 54.810792322955535 44.92663123558549 H 0.0 **** 0.06
15128 H 59.68353651874608 54.71567420300778 46.12586366676327 H 0.0 **** 0.06
15129 H 60.102122111611635 56.2797003091942 45.38538106704979 H 0.0 **** 0.06
15130 H 61.21747969678978 55.51748841841464 46.54494888512222 H 0.0 **** 0.06
15131 C 26.021204218715127 43.109178946493614 74.02677361828552 C 0.0 **** -0.24
15132 H 26.34644164433962 43.641613403288034 73.1327646417634 H 0.0 **** 0.06
15133 H 26.373281647350723 42.077829734115255 73.9821056697512 H 0.0 **** 0.06
15134 H 24.932224204823115 43.11898953519591 74.0795673455982 H 0.0 **** 0.06
15135 H 26.433550295473253 43.5965732157739 74.91008522167448 H 0.0 **** 0.06
15136 C 28.54574828812747 95.28042451027359 80.9050280748346 C 0.0 **** -0.24
15137 H 28.699478090699387 95.31852053524904 81.9835978308531 H 0.0 **** 0.06
15138 H 28.847792990108445 94.30191840264223 80.52988713501654 H 0.0 **** 0.06
15139 H 29.145206026604825 96.05477877023095 80.4252918831075 H 0.0 **** 0.06
15140 H 27.491882430494258 95.44576795845178 80.68212643843178 H 0.0 **** 0.06
15141 C 81.55888618554567 61.39494052444758 57.19709277344961 C 0.0 **** -0.24
15142 H 81.73363411835538 60.85955487558823 58.13056760035781 H 0.0 **** 0.06
15143 H 81.66202417785973 62.46681958327423 57.36921411116853 H 0.0 **** 0.06
15144 H 80.55276135845673 61.17961779358751 56.83775894420393 H 0.0 **** 0.06
15145 H 82.28706547633243 61.07440610347686 56.45272564789198 H 0.0 **** 0.06
15146 C 89.74974207518807 103.97350773638954 99.97656482406822 C 0.0 **** -0.24
15147 H 90.56251924353143 104.21238574079375 99.28971440157639 H 0.0 **** 0.06
15148 H 88.799958827755 104.01452898349207 99.44239541898695 H 0.0 **** 0.06
15149 H 89.73998823108741 104.69591301673178 100.79242897442462 H 0.0 **** 0.06
15150 H 89.89841643378753 102.97245324142483 100.3795358181695 H 0.0 **** 0.06
15151 C 91.85622222074437 39.782031830475404 54.18795735030577 C 0.0 **** -0.24
15152 H 91.83923578120346 40.32269787428473 55.133475451385046 H 0.0 **** 0.06
15153 H 90.83566072323953 39.53608370422279 53.89251247753128 H 0.0 **** 0.06
15154 H 92.43286941263449 38.86409220491163 54.304738155452796 H 0.0 **** 0.06
15155 H 92.31712296590057 40.40525353848244 53.421103316854044 H 0.0 **** 0.06
15156 C 2.2562987331515103 90.90623146328092 60.45683287669071 C 0.0 **** -0.24
15157 H 2.415672549165805 90.79031070085449 61.5284364325031 H 0.0 **** 0.06
15158 H 3.1152606213932756 90.50727841832135 59.915758124948894 H 0.0 **** 0.06
15159 H 2.1360102001976884 91.96274976521659 60.21946489781615 H 0.0 **** 0.06
15160 H 1.3575380792273108 90.36285351381964 60.16297471742607 H 0.0 **** 0.06
15161 C 46.67621628317474 20.705828939681 108.88702810922635 C 0.0 **** -0.24
15162 H 46.31987197291378 20.888889331557834 109.90020501143113 H 0.0 **** 0.06
15163 H 47.7659402036087 20.739020643163457 108.87426158643132 H 0.0 **** 0.06
15164 H 46.280965861914865 21.47108346877758 108.21855484661752 H 0.0 **** 0.06
15165 H 46.33812635455797 19.723449093025835 108.55460520320548 H 0.0 **** 0.06
15166 C 98.74943148741302 30.08828848518482 23.507477290234135 C 0.0 **** -0.24
15167 H 98.32580662581549 29.772706684224374 22.554367152067584 H 0.0 **** 0.06
15168 H 99.09164441447523 29.213637037930823 24.060137217055626 H 0.0 **** 0.06
15169 H 97.98929734206817 30.610361146448213 24.087734155090914 H 0.0 **** 0.06
15170 H 99.59125926442725 30.757041265918303 23.326417619427332 H 0.0 **** 0.06
15171 C 66.65075858340312 81.36527140191214 19.463835738588642 C 0.0 **** -0.24
15172 H 65.63702438566665 81.02774611666669 19.24620632162666 H 0.0 **** 0.06
15173 H 66.9578737599465 80.98482322890519 20.438516900279836 H 0.0 **** 0.06
15174 H 66.67670852163627 82.45480741938553 19.472930676730513 H 0.0 **** 0.06
15175 H 67.32983038312422 80.9921867940221 18.697325322525046 H 0.0 **** 0.06
15176 C 15.798886982902673 80.47049301280724 86.43080923617538 C 0.0 **** -0.24
15177 H 15.70231757389763 79.54521707788487 86.99911080484287 H 0.0 **** 0.06
15178 H 15.751062246560537 80.24771213904778 85.3647893719922 H 0.0 **** 0.06
15179 H 16.75484280036835 80.93982183591328 86.66133852430343 H 0.0 **** 0.06
15180 H 14.98777729956413 81.14727680352708 86.69900624169685 H 0.0 **** 0.06
15181 C 83.42419337406034 63.27185568375752 54.540210681639735 C 0.0 **** -0.24
15182 H 83.1239467742231 62.48778862489843 55.2358547902665 H 0.0 **** 0.06
15183 H 82.88494857345572 64.18924019670813 54.77355699229247 H 0.0 **** 0.06
15184 H 83.19157768793389 62.961508037855 53.52219443461911 H 0.0 **** 0.06
15185 H 84.49634282025599 63.44621447559739 54.630601160902046 H 0.0 **** 0.06
15186 C 13.88440464739223 84.34027284311594 24.660237015365055 C 0.0 **** -0.24
15187 H 12.844384870195142 84.2288585103775 24.353788706490434 H 0.0 **** 0.06
15188 H 14.033266758036333 85.33140408732567 25.087910673172246 H 0.0 **** 0.06
15189 H 14.533552023356236 84.21677722016187 23.793509049536084 H 0.0 **** 0.06
15190 H 14.12644665052801 83.58263970970958 25.405815707329793 H 0.0 **** 0.06
15191 C 95.46128745266026 5.371181210896452 59.83872828101329 C 0.0 **** -0.24
15192 H 96.52857600929423 5.158154091552916 59.78156684898954 H 0.0 **** 0.06
15193 H 94.90062700947294 4.4379476105662405 59.7781492480695 H 0.0 **** 0.06
15194 H 95.175813230384 6.021741913005627 59.011390285008474 H 0.0 **** 0.06
15195 H 95.23976980574923 5.867738513699692 60.78344233379863 H 0.0 **** 0.06
15196 C 67.93297571964656 17.63078063119937 34.10449928269282 C 0.0 **** -0.24
15197 H 68.34780803202996 18.46082166117195 33.532424186692694 H 0.0 **** 0.06
15198 H 68.49191565707252 16.721244548477358 33.883186944631476 H 0.0 **** 0.06
15199 H 66.88630610055817 17.490314988305272 33.83093014455292 H 0.0 **** 0.06
15200 H 68.00317859516089 17.851523792550466 35.16942409572349 H 0.0 **** 0.06
15201 C 26.330088508758024 65.00085536119303 99.81265544628025 C 0.0 **** -0.24
15202 H 25.872416707216118 64.97564474352603 98.82338862578305 H 0.0 **** 0.06
15203 H 27.28142140035294 65.52941535755615 99.7584900942785 H 0.0 **** 0.06
15204 H 26.499219441505076 63.98164278143973 100.15936178244345 H 0.0 **** 0.06
15205 H 25.66626541098688 65.51567395337969 100.50696341721783 H 0.0 **** 0.06
15206 C 9.637880274797958 28.527086625428005 91.16784533123584 C 0.0 **** -0.24
15207 H 10.569988098400561 28.704017848430368 90.62929049343619 H 0.0 **** 0.06
15208 H 9.330230412062315 27.49019750500772 91.02769739881762 H 0.0 **** 0.06
15209 H 8.864724460833441 29.1920236061968 90.78236020512341 H 0.0 **** 0.06
15210 H 9.789643498743354 28.72209542302366 92.22927565671773 H 0.0 **** 0.06
15211 C 15.015698030237882 51.19037679721046 17.276521775700697 C 0.0 **** -0.24
15212 H 14.177475988001664 51.2790694112968 17.96799145452449 H 0.0 **** 0.06
15213 H 15.003238429097333 52.03000881735301 16.580731757222377 H 0.0 **** 0.06
15214 H 14.930855367952645 50.25690510765685 16.721141602395896 H 0.0 **** 0.06
15215 H 15.950343431977423 51.19694406458848 17.836681281315492 H 0.0 **** 0.06
15216 C 74.03204236555261 39.44702898174925 102.52672007317695 C 0.0 **** -0.24
15217 H 73.77261882512465 40.41367473154823 102.9582432767255 H 0.0 **** 0.06
15218 H 74.8402630136163 38.99660829849148 103.10519443366674 H 0.0 **** 0.06
15219 H 74.35792496742403 39.58511729470395 101.49540244525258 H 0.0 **** 0.06
15220 H 73.16094041348148 38.79330772600071 102.54896194769702 H 0.0 **** 0.06
15221 C 8.304747139895824 41.121544922552914 35.48246227969213 C 0.0 **** -0.24
15222 H 7.941315280367277 40.495041190129285 36.297048200219194 H 0.0 **** 0.06
15223 H 8.022635924101237 42.157858348841174 35.666879144352265 H 0.0 **** 0.06
15224 H 7.866637097211807 40.78611572967472 34.542756112538655 H 0.0 **** 0.06
15225 H 9.391152230704478 41.04558644470862 35.42413374210187 H 0.0 **** 0.06
15226 C 96.81113634037693 23.577198097203393 7.258516864155062 C 0.0 **** -0.24
15227 H 96.38050734997212 24.578940632799515 7.267653243992632 H 0.0 **** 0.06
15228 H 96.95187140414818 23.23235299162991 8.28287830196116 H 0.0 **** 0.06
15229 H 97.77401253715982 23.600987498921256 6.746602379953538 H 0.0 **** 0.06
15230 H 96.13824446561962 22.898790154454048 6.734326024586585 H 0.0 **** 0.06
15231 C 13.830937343404617 109.07149428323649 10.936329164615302 C 0.0 **** -0.24
15232 H 13.09725235218102 108.7505478915671 11.676402576896749 H 0.0 **** 0.06
15233 H 14.795153384814252 108.61260630402566 11.15929599087113 H 0.0 **** 0.06
15234 H 13.928366789739197 110.15622634707701 10.968072959240885 H 0.0 **** 0.06
15235 H 13.50312517571236 108.76368702223475 9.943419433170021 H 0.0 **** 0.06
15236 C 66.61859671636323 58.81828057064429 82.5624551594031 C 0.0 **** -0.24
15237 H 67.29021666386895 58.64522903819291 81.72178301219651 H 0.0 **** 0.06
15238 H 65.6458899426532 59.14042114405952 82.19057231094047 H 0.0 **** 0.06
15239 H 67.03696770905219 59.59117570784373 83.20770217762862 H 0.0 **** 0.06
15240 H 66.50429246011248 57.894256891887444 83.1307435785738 H 0.0 **** 0.06
15241 C 90.23817816157162 35.57743379386096 7.18743897509961 C 0.0 **** -0.24
15242 H 91.32387084273972 35.51605578753032 7.110855566139094 H 0.0 **** 0.06
15243 H 89.96257706896739 36.48544894985616 7.722481318251113 H 0.0 **** 0.06
15244 H 89.86289061615577 34.709017913248005 7.728499934346161 H 0.0 **** 0.06
15245 H 89.80456472634856 35.59775629006856 6.187239352794478 H 0.0 **** 0.06
15246 C 3.8394878106266788 53.26188859462082 23.477864675989736 C 0.0 **** -0.24
15247 H 3.0534334443418487 53.37698800094399 22.731361804076442 H 0.0 **** 0.06
15248 H 3.997706251066589 54.21236810770001 23.9883502586419 H 0.0 **** 0.06
15249 H 4.763860066312176 52.95458649844759 22.988254378485323 H 0.0 **** 0.06
15250 H 3.543022748555103 52.504525227917334 24.203892971661787 H 0.0 **** 0.06
15251 C 95.68574910465506 16.08697784092911 74.6887243339078 C 0.0 **** -0.24
15252 H 95.39798393579399 16.135754929945932 75.73911896786129 H 0.0 **** 0.06
15253 H 96.77218684901082 16.120300439481667 74.60845923965245 H 0.0 **** 0.06
15254 H 95.2553809722636 16.934160859198272 74.15506522085269 H 0.0 **** 0.06
15255 H 95.31645997613032 15.157657324736334 74.25449650894043 H 0.0 **** 0.06
15256 C 70.46236774167159 46.70645877626066 24.28177999214563 C 0.0 **** -0.24
15257 H 70.2257217127081 47.41625726325295 23.489234333959246 H 0.0 **** 0.06
15258 H 70.40575482443586 47.20896130826298 25.248179041443905 H 0.0 **** 0.06
15259 H 71.46987074661439 46.31775665714907 24.13219977307756 H 0.0 **** 0.06
15260 H 69.74835106146884 45.883715065079286 24.257972653581135 H 0.0 **** 0.06
15261 C 61.18429904828197 46.690782169019144 54.455301620286235 C 0.0 **** -0.24
15262 H 61.87867584006429 45.89008162824399 54.19990506891525 H 0.0 **** 0.06
15263 H 61.15923779439193 47.42097141710033 53.64546179952538 H 0.0 **** 0.06
15264 H 61.51359914006159 47.17723566771352 55.37419953257082 H 0.0 **** 0.06
15265 H 60.18786777589662 46.27450879870048 54.60129488283936 H 0.0 **** 0.06
15266 C 57.22105724014793 68.004819368771 43.35321520818061 C 0.0 **** -0.24
15267 H 56.61174813058352 68.43643941530114 44.1464682216784 H 0.0 **** 0.06
15268 H 57.62908732802222 67.05038644880193 43.68805574285633 H 0.0 **** 0.06
15269 H 58.03754505717498 68.68480399503302 43.111388024512536 H 0.0 **** 0.06
15270 H 56.60561793478254 67.84605021509249 42.46813010309586 H 0.0 **** 0.06
15271 C 97.78542486369359 11.517770300173424 14.655426178710869 C 0.0 **** -0.24
15272 H 97.61566742876829 10.44607834779626 14.762783869167606 H 0.0 **** 0.06
15273 H 98.04396864451724 11.742040094746102 13.619769326055376 H 0.0 **** 0.06
15274 H 98.6032891972536 11.822976130782507 15.30832372607162 H 0.0 **** 0.06
15275 H 96.879354765695 12.058348173042134 14.929101905410562 H 0.0 **** 0.06
15276 C 79.37096535453634 33.09865609575405 91.37529469230464 C 0.0 **** -0.24
15277 H 79.18793096656799 32.182463022771344 90.81358164675686 H 0.0 **** 0.06
15278 H 78.72358578668246 33.89133944584904 90.9966962271863 H 0.0 **** 0.06
15279 H 80.41326320157447 33.39385968786712 91.25963207343506 H 0.0 **** 0.06
15280 H 79.15715478749837 32.927424614882455 92.42982853903283 H 0.0 **** 0.06
15281 C 43.80367629431605 30.86231513353715 6.737054643768246 C 0.0 **** -0.24
15282 H 42.86650487848733 30.557490605948374 7.201535591715498 H 0.0 **** 0.06
15283 H 44.62232622582329 30.269249389085587 7.145692888722593 H 0.0 **** 0.06
15284 H 43.98274185348353 31.918371094674796 6.939235751746196 H 0.0 **** 0.06
15285 H 43.74197909896685 30.704178575821345 5.659838693599426 H 0.0 **** 0.06
15286 C 35.059510924575584 14.757491661358017 93.26468550660081 C 0.0 **** -0.24
15287 H 34.44782266928635 15.096816962164695 92.42848116334875 H 0.0 **** 0.06
15288 H 36.11316950251352 14.899542356678722 93.025507667781 H 0.0 **** 0.06
15289 H 34.867018519498735 13.700108609330613 93.45018938534011 H 0.0 **** 0.06
15290 H 34.80771835066854 15.333978824260157 94.15611695502938 H 0.0 **** 0.06
15291 C 54.28670439557311 4.950287823018925 50.63861938883707 C 0.0 **** -0.24
15292 H 53.605477753084216 4.998285665919525 49.789521459128935 H 0.0 **** 0.06
15293 H 54.97502444991676 4.115265755757093 50.50575651647364 H 0.0 **** 0.06
15294 H 53.7145743881444 4.808291278406841 51.5556352636591 H 0.0 **** 0.06
15295 H 54.851556801106994 5.881298078678697 50.7036549523894 H 0.0 **** 0.06
15296 C 39.55411264729628 2.3411516537374837 28.271133051684956 C 0.0 **** -0.24
15297 H 39.43779063052315 1.6864957332759047 29.135097575968217 H 0.0 **** 0.06
15298 H 40.44074749642772 2.961376153229679 28.403072746573542 H 0.0 **** 0.06
15299 H 38.67453985376707 2.9779741954946672 28.17770604554852 H 0.0 **** 0.06
15300 H 39.66226789671927 1.7370388943601824 27.371067491192406 H 0.0 **** 0.06
15301 C 46.08457459056331 48.218789229692845 38.64664627158898 C 0.0 **** -0.24
15302 H 45.648463621659175 47.57366598013408 37.88417328115366 H 0.0 **** 0.06
15303 H 47.15251018058996 48.33435093163678 38.45563830829999 H 0.0 **** 0.06
15304 H 45.93672941354703 47.77152809461904 39.628837225307535 H 0.0 **** 0.06
15305 H 45.60261228607345 49.19588734575922 38.61531790774822 H 0.0 **** 0.06
15306 C 33.42322632717318 35.685297610134654 53.14097152536475 C 0.0 **** -0.24
15307 H 32.33493539674146 35.70484871824024 53.2003388331114 H 0.0 **** 0.06
15308 H 33.84270016304387 36.24156986953341 53.9792648745444 H 0.0 **** 0.06
15309 H 33.74442691058661 36.140433221391305 52.20470950831335 H 0.0 **** 0.06
15310 H 33.77014566211763 34.65247633104559 53.180595641845656 H 0.0 **** 0.06
15311 C 105.00609587530131 35.554423755800045 108.36592296439613 C 0.0 **** -0.24
15312 H 104.68335559543736 35.1168999974461 109.31071740871877 H 0.0 **** 0.06
15313 H 105.87738414180261 36.18719248912819 108.53756618337411 H 0.0 **** 0.06
15314 H 104.19784734151096 36.153815727438996 107.9477084232087 H 0.0 **** 0.06
15315 H 105.26639864916645 34.758989987571766 107.66774931800657 H 0.0 **** 0.06
15316 C 90.35640716408591 34.89350502921724 17.30006307776287 C 0.0 **** -0.24
15317 H 89.35269857042084 34.468445927026764 17.32461327169122 H 0.0 **** 0.06
15318 H 91.09103985741524 34.09830527198574 17.430270830568418 H 0.0 **** 0.06
15319 H 90.46140623879069 35.621750156022955 18.104745705536715 H 0.0 **** 0.06
15320 H 90.51979045726043 35.386065048958585 16.341727348131855 H 0.0 **** 0.06
15321 C 94.78900478674186 83.28503777955177 76.49644883499883 C 0.0 **** -0.24
15322 H 94.99177897582082 84.25396694404549 76.03940200812431 H 0.0 **** 0.06
15323 H 94.94148667095044 82.49691913410282 75.75911706712714 H 0.0 **** 0.06
15324 H 93.7577111513472 83.25908964771901 76.84810631819744 H 0.0 **** 0.06
15325 H 95.46401103252147 83.13195372735714 77.33829008352848 H 0.0 **** 0.06
15326 C 37.65855128890258 39.54341077238729 98.77167632934226 C 0.0 **** -0.24
15327 H 38.05409258091049 39.23208386689638 97.80504843302188 H 0.0 **** 0.06
15328 H 37.7542230476943 38.72378395038458 99.48435556134795 H 0.0 **** 0.06
15329 H 36.60677298295315 39.81070219205676 98.6638031829955 H 0.0 **** 0.06
15330 H 38.217463187937604 40.40687599658395 99.13170151291897 H 0.0 **** 0.06
15331 C 25.144862138001574 7.2925214769380915 6.934069051321458 C 0.0 **** -0.24
15332 H 24.290421350495222 7.12243223687949 6.278978632834367 H 0.0 **** 0.06
15333 H 26.012887275877986 6.760683498197622 6.5449616510374256 H 0.0 **** 0.06
15334 H 24.912506937465484 6.927623245909558 7.934487563187176 H 0.0 **** 0.06
15335 H 25.362353698038604 8.360104303635907 6.978737147111616 H 0.0 **** 0.06
15336 C 97.84431617021329 74.69441822480277 78.62983722894876 C 0.0 **** -0.24
15337 H 98.83078803804449 74.69095424029317 79.0931989723585 H 0.0 **** 0.06
15338 H 97.50149169498424 75.72299587045511 78.51339704360458 H 0.0 **** 0.06
15339 H 97.14485177324877 74.14690944375721 79.26166280709714 H 0.0 **** 0.06
15340 H 97.90013317457581 74.21681334470537 77.65109009273482 H 0.0 **** 0.06
15341 C 49.190925167538694 92.51850300518474 61.179328536981316 C 0.0 **** -0.24
15342 H 49.3687095459712 91.47474747092657 61.439981574457406 H 0.0 **** 0.06
15343 H 48.521523457281035 92.56979331517046 60.32046677212476 H 0.0 **** 0.06
15344 H 50.13807071174065 92.99748551030127 60.930988155339534 H 0.0 **** 0.06
15345 H 48.73449406183855 93.03159913300797 62.02606574261455 H 0.0 **** 0.06
15346 C 13.43275071235837 42.27077960089977 4.777146756462011 C 0.0 **** -0.24
15347 H 13.411674424303897 41.216086713975244 5.051284607296871 H 0.0 **** 0.06
15348 H 14.138929989714597 42.41983271867201 3.9603543364830323 H 0.0 **** 0.06
15349 H 13.742023730357914 42.863434798734005 5.638344702588528 H 0.0 **** 0.06
15350 H 12.43741479433477 42.583944001300694 4.460614966076696 H 0.0 **** 0.06
15351 C 56.4797558603411 58.966198820997874 25.813434724429953 C 0.0 **** -0.24
15352 H 55.78006968465928 58.13209584043926 25.760601632596035 H 0.0 **** 0.06
15353 H 56.02401169823605 59.78793366616486 26.366970656621902 H 0.0 **** 0.06
15354 H 56.72555990203733 59.29845868605511 24.805372938572873 H 0.0 **** 0.06
15355 H 57.38866576781635 58.64502555220719 26.322480291568127 H 0.0 **** 0.06
15356 C 1.6657861737149489 61.04118925785434 91.89289024982779 C 0.0 **** -0.24
15357 H 0.7732270402936363 61.47354266294741 92.34637966131626 H 0.0 **** 0.06
15358 H 1.4452527815873601 60.029216535602245 91.55288715164768 H 0.0 **** 0.06
15359 H 2.468833226820169 61.01083715541344 92.62940844495387 H 0.0 **** 0.06
15360 H 1.972862956020026 61.65128171807487 91.04396866498024 H 0.0 **** 0.06
15361 C 95.01823184089615 101.09516256560335 59.83574951259247 C 0.0 **** -0.24
15362 H 96.0750355041957 101.28361379403026 59.644404124351425 H 0.0 **** 0.06
15363 H 94.5384627687397 100.75618714449075 58.91671782442399 H 0.0 **** 0.06
15364 H 94.54181921256286 102.01444102370093 60.17700748980624 H 0.0 **** 0.06
15365 H 94.91945026111338 100.32789636016662 60.60302494323264 H 0.0 **** 0.06
15366 C 88.71555779504403 15.910083970164095 33.74903785335705 C 0.0 **** -0.24
15367 H 88.58688323975095 14.829590825865296 33.68877787454967 H 0.0 **** 0.06
15368 H 88.1879366124319 16.290431659941106 34.6245602456836 H 0.0 **** 0.06
15369 H 88.31141307162814 16.374623115121494 32.84955839659041 H 0.0 **** 0.06
15370 H 89.77706643419009 16.14476913679013 33.83315198443495 H 0.0 **** 0.06
15371 C 55.16556031468701 64.58541375643198 14.628253699150207 C 0.0 **** -0.24
15372 H 55.89665322035631 64.76870775659246 13.841430154351258 H 0.0 **** 0.06
15373 H 55.04329862597558 63.51165203871993 14.767995187437123 H 0.0 **** 0.06
15374 H 54.20934075688868 65.02704541880699 14.345413533446447 H 0.0 **** 0.06
15375 H 55.51231342173182 65.03638508413663 15.557982693553583 H 0.0 **** 0.06
15376 C 21.521983493461107 60.470734019762986 73.70121900193914 C 0.0 **** -0.24
15377 H 22.420771928881038 60.06799565475784 73.23318901463264 H 0.0 **** 0.06
15378 H 20.652230958930858 60.22248780613097 73.09172471765514 H 0.0 **** 0.06
15379 H 21.610831352698483 61.5533756746279 73.78417024189662 H 0.0 **** 0.06
15380 H 21.404884528498314 60.036996263108065 74.69476482240252 H 0.0 **** 0.06
15381 C 43.42671363103548 5.444909338744949 51.01936011001675 C 0.0 **** -0.24
15382 H 43.08833397028407 4.444648698252863 50.75158846981398 H 0.0 **** 0.06
15383 H 42.569151722535395 6.055104161574647 51.304331612175446 H 0.0 **** 0.06
15384 H 43.9282001051152 5.900337787957952 50.164664157049174 H 0.0 **** 0.06
15385 H 44.12158737038103 5.381738413441354 51.85700251751547 H 0.0 **** 0.06
15386 C 39.57804585100502 107.53945290368179 71.55513454056016 C 0.0 **** -0.24
15387 H 39.56084177680429 107.16109181000863 72.57748027111258 H 0.0 **** 0.06
15388 H 39.76663365534356 108.61364775551061 71.56873601505941 H 0.0 **** 0.06
15389 H 38.616431433899535 107.34560814072648 71.07961083052751 H 0.0 **** 0.06
15390 H 40.36817785027058 107.03882642198727 70.99648137472406 H 0.0 **** 0.06
15391 C 69.71304174093007 69.70913245828098 19.089045026752956 C 0.0 **** -0.24
15392 H 69.32596745085905 70.59683178313264 19.58968290426924 H 0.0 **** 0.06
15393 H 70.64311243213515 69.40097957777806 19.565425249611565 H 0.0 **** 0.06
15394 H 69.89827178298077 69.93583549442633 18.038884824700688 H 0.0 **** 0.06
15395 H 68.98211278963021 68.90416684083374 19.16240756318723 H 0.0 **** 0.06
15396 C 109.50223436817387 14.450107665222504 17.788370244502374 C 0.0 **** -0.24
15397 H 110.0287230605768 14.158568424311795 16.878655743393978 H 0.0 **** 0.06
15398 H 108.45185100072672 14.629416944781696 17.55784291070296 H 0.0 **** 0.06
15399 H 109.94709317439879 15.359626786679257 18.190641814841143 H 0.0 **** 0.06
15400 H 109.58063764275333 13.650079641435298 18.525292226581627 H 0.0 **** 0.06
15401 C 47.84309686869892 18.447697867512943 85.31389794032475 C 0.0 **** -0.24
15402 H 48.77746406405936 18.949858533367888 85.56358063056084 H 0.0 **** 0.06
15403 H 47.00743265306966 19.000235928846564 85.74363027882612 H 0.0 **** 0.06
15404 H 47.85551779983001 17.434815274607615 85.71748000071435 H 0.0 **** 0.06
15405 H 47.731971145535 18.404898962565483 84.2310858054696 H 0.0 **** 0.06
15406 C 94.78928520984974 1.2049611448826738 86.08900046466596 C 0.0 **** -0.24
15407 H 95.33318464433887 2.0113023519978412 86.58094774065592 H 0.0 **** 0.06
15408 H 94.9339012034655 1.2747590692442259 85.01102907688374 H 0.0 **** 0.06
15409 H 93.72773002071324 1.2900022503123125 86.32048574503574 H 0.0 **** 0.06
15410 H 95.16373812914046 0.24480047405467076 86.44494062277397 H 0.0 **** 0.06
15411 C 85.17024036615663 44.94432036999288 11.312618058873937 C 0.0 **** -0.24
15412 H 85.32298737043902 45.36462671524171 10.318240451764751 H 0.0 **** 0.06
15413 H 84.5769666970391 44.033838156453754 11.234911556155282 H 0.0 **** 0.06
15414 H 84.6450594001414 45.66916479851573 11.935200909944257 H 0.0 **** 0.06
15415 H 86.13640232903009 44.712249102606336 11.760688199816116 H 0.0 **** 0.06
15416 C 88.62537952963663 82.75192617481801 95.5241995000077 C 0.0 **** -0.24
15417 H 88.90163792508383 83.05996067716742 94.51581817115103 H 0.0 **** 0.06
15418 H 87.95258734479631 83.49144841128562 95.95815386287114 H 0.0 **** 0.06
15419 H 89.52295629066066 82.67090869121176 96.13820686459383 H 0.0 **** 0.06
15420 H 88.12518384368855 81.78385596009203 95.48290487645524 H 0.0 **** 0.06
15421 C 100.76153711976616 62.09122959910161 61.433682217233525 C 0.0 **** -0.24
15422 H 100.97147623410257 61.033184045021585 61.27397597569029 H 0.0 **** 0.06
15423 H 99.94924337956701 62.40313201950681 60.77608987092003 H 0.0 **** 0.06
15424 H 101.6533276053901 62.67570808692051 61.21107626735133 H 0.0 **** 0.06
15425 H 100.47160938824564 62.25134284707195 62.47205330314523 H 0.0 **** 0.06
15426 C 99.99201579711118 63.71176808408802 4.046152338090533 C 0.0 **** -0.24
15427 H 100.43137128018049 64.12383026439551 3.1380442211874886 H 0.0 **** 0.06
15428 H 100.75963961034886 63.18648071380835 4.6155518349651565 H 0.0 **** 0.06
15429 H 99.19556032877055 63.01671077310243 3.781263945710311 H 0.0 **** 0.06
15430 H 99.58155931504085 64.52075410421384 4.6504568636489765 H 0.0 **** 0.06
15431 C 90.80352673411082 18.10204782098087 56.565046666608566 C 0.0 **** -0.24
15432 H 91.10011047487481 18.85906661863484 55.83807448098827 H 0.0 **** 0.06
15433 H 91.5409202763428 18.06027785476755 57.36688325447733 H 0.0 **** 0.06
15434 H 90.7430163729432 17.13126354771714 56.07404339981872 H 0.0 **** 0.06
15435 H 89.82919896425105 18.360170421435612 56.98043323649159 H 0.0 **** 0.06
15436 C 48.41449704223638 26.388263435989998 72.07851050659784 C 0.0 **** -0.24
15437 H 48.501986559492266 25.387344649323268 71.65427932233654 H 0.0 **** 0.06
15438 H 48.765338927711866 27.121975460682762 71.35312407503798 H 0.0 **** 0.06
15439 H 49.020126700234364 26.452258417702254 72.98298674480424 H 0.0 **** 0.06
15440 H 47.37143565408179 26.588034349977576 72.32424490414768 H 0.0 **** 0.06
15441 C 104.86130865329108 26.216063931888755 57.75485579220635 C 0.0 **** -0.24
15442 H 105.93839990920299 26.177553601594298 57.92019267849116 H 0.0 **** 0.06
15443 H 104.66097655668554 26.32852771856227 56.68917909254564 H 0.0 **** 0.06
15444 H 104.44298644506594 27.06507238651767 58.29563212731009 H 0.0 **** 0.06
15445 H 104.40536323806556 25.29474332111988 58.11644387579993 H 0.0 **** 0.06
15446 C 21.254568436703977 89.08584513258103 63.73242345076561 C 0.0 **** -0.24
15447 H 20.37462003227725 89.36884416749582 63.15655270817213 H 0.0 **** 0.06
15448 H 22.08502162282872 89.74319721839034 63.47501793358968 H 0.0 **** 0.06
15449 H 21.52289368699803 88.05405129656278 63.50282605692267 H 0.0 **** 0.06
15450 H 21.0363522303212 89.17547891940362 64.79683049708201 H 0.0 **** 0.06
15451 C 45.53011853939995 106.68054657281274 72.87127137963455 C 0.0 **** -0.24
15452 H 45.20766065719579 105.69112197781482 73.19503167896403 H 0.0 **** 0.06
15453 H 44.93977799579392 106.98983487244838 72.00858043369874 H 0.0 **** 0.06
15454 H 46.58457148093595 106.64819480059609 72.59664029615652 H 0.0 **** 0.06
15455 H 45.387418570391446 107.39293893777632 73.68388549822859 H 0.0 **** 0.06
15456 C 25.02233206439496 90.95857341249967 18.68901093567365 C 0.0 **** -0.24
15457 H 25.30813006699219 91.33533562484706 17.70731212048471 H 0.0 **** 0.06
15458 H 24.451906451321292 90.03632421470022 18.57138873218511 H 0.0 **** 0.06
15459 H 24.409446001891354 91.7028317803892 19.19880313422996 H 0.0 **** 0.06
15460 H 25.91803504214954 90.76029109814675 19.277322199660627 H 0.0 **** 0.06
15461 C 108.97230222266157 3.7832214938642323 46.415908709885926 C 0.0 **** -0.24
15462 H 108.60317898782624 3.285437103894253 47.312503709363284 H 0.0 **** 0.06
15463 H 110.06112163130288 3.8174262346578303 46.4417961200755 H 0.0 **** 0.06
15464 H 108.57661891597564 4.797910224386612 46.37491662247105 H 0.0 **** 0.06
15465 H 108.64699181460165 3.230887894410273 45.53351442906246 H 0.0 **** 0.06
15466 C 65.35111387483965 36.43936987294964 96.45647150994239 C 0.0 **** -0.24
15467 H 66.15472030420148 37.15505593976283 96.62672416915166 H 0.0 **** 0.06
15468 H 64.73979989753008 36.35785491833278 97.35492037869625 H 0.0 **** 0.06
15469 H 65.77757709935975 35.46484880680565 96.21680983681637 H 0.0 **** 0.06
15470 H 64.73274490377412 36.779522381273196 95.62523809138207 H 0.0 **** 0.06
15471 C 83.03480967431364 74.42996515600362 82.54764533000645 C 0.0 **** -0.24
15472 H 83.04223230896406 75.31235861743681 83.18714163459205 H 0.0 **** 0.06
15473 H 84.05026027494551 74.21356251832725 82.21589416457456 H 0.0 **** 0.06
15474 H 82.40000020888431 74.61544034360554 81.68111848785668 H 0.0 **** 0.06
15475 H 82.64560529187554 73.57889647073051 83.10766851741738 H 0.0 **** 0.06
15476 C 47.33338175095208 90.97661993073903 46.100923182565055 C 0.0 **** -0.24
15477 H 46.49196065251564 91.38663889593512 46.65981124324799 H 0.0 **** 0.06
15478 H 47.4402028375981 91.51451232622328 45.15875923452393 H 0.0 **** 0.06
15479 H 47.15524721598477 89.92099323472544 45.89945567050262 H 0.0 **** 0.06
15480 H 48.24603245887322 91.08552736136721 46.68692038759119 H 0.0 **** 0.06
15481 C 58.92451110441925 79.779101429692 31.573788630289485 C 0.0 **** -0.24
15482 H 59.340248031751 80.45861252623098 32.3174722439607 H 0.0 **** 0.06
15483 H 59.63119868684868 78.9705219009691 31.38450652298375 H 0.0 **** 0.06
15484 H 58.73951173728955 80.32339799440399 30.64712828223103 H 0.0 **** 0.06
15485 H 57.987495624172766 79.36403839646923 31.944372638381893 H 0.0 **** 0.06
15486 C 48.40516510808425 82.83875590142097 73.78156033818561 C 0.0 **** -0.24
15487 H 47.59671211052995 83.54466651985234 73.97233460974945 H 0.0 **** 0.06
15488 H 48.33082234517531 82.00495891949782 74.47924836349205 H 0.0 **** 0.06
15489 H 49.3640343962125 83.34062182082084 73.91351556071453 H 0.0 **** 0.06
15490 H 48.32807668425278 82.46667425138588 72.75997310243355 H 0.0 **** 0.06
15491 C 87.1451099154246 96.61701681470649 8.842999451075912 C 0.0 **** -0.24
15492 H 87.74909439052695 95.86114943468901 9.344532201210512 H 0.0 **** 0.06
15493 H 87.79757627387926 97.38056534115817 8.419388585706102 H 0.0 **** 0.06
15494 H 86.46705850177659 97.07719950690382 9.561889598873648 H 0.0 **** 0.06
15495 H 86.5669354173429 96.14973242977696 8.045404032832707 H 0.0 **** 0.06
15496 C 13.948292201204481 25.19798034816756 90.83696656796644 C 0.0 **** -0.24
15497 H 14.520931045264462 25.894132027404325 91.4484952902612 H 0.0 **** 0.06
15498 H 14.474143068475684 25.021317640172327 89.89799314949003 H 0.0 **** 0.06
15499 H 12.965246132330492 25.62113106875303 90.62906085583668 H 0.0 **** 0.06
15500 H 13.831803496695528 24.255456660457 91.3713712028132 H 0.0 **** 0.06
15501 C 77.13990003562998 48.548946163047674 26.8794535009593 C 0.0 **** -0.24
15502 H 77.49124633263928 48.71580594405083 25.861054034975837 H 0.0 **** 0.06
15503 H 76.05357281789199 48.45751981466776 26.877943448775227 H 0.0 **** 0.06
15504 H 77.43473733924277 49.38955600672341 27.507277440721225 H 0.0 **** 0.06
15505 H 77.58148230888897 47.631110510464964 27.269610841392648 H 0.0 **** 0.06
15506 C 82.35167005969937 76.00806568948616 61.74766444166323 C 0.0 **** -0.24
15507 H 82.94321596746104 76.41742772408317 60.92821519278749 H 0.0 **** 0.06
15508 H 82.2063190388447 74.93941436232068 61.592512126063355 H 0.0 **** 0.06
15509 H 81.38332349562461 76.50687723961963 61.78011141060068 H 0.0 **** 0.06
15510 H 82.87634626715749 76.1718033900766 62.689802853043886 H 0.0 **** 0.06
15511 C 66.17378594433319 21.570604158994428 78.18543667495612 C 0.0 **** -0.24
15512 H 65.36676264697894 20.889137121882385 78.45427850786305 H 0.0 **** 0.06
15513 H 66.98251417138931 21.009486821156045 77.7164208017806 H 0.0 **** 0.06
15514 H 66.54712702555702 22.064556130556042 79.08290967523533 H 0.0 **** 0.06
15515 H 65.79935796162113 22.31998082122925 77.48788439806157 H 0.0 **** 0.06
15516 C 73.10364228791343 29.321379925814192 105.90428052585017 C 0.0 **** -0.24
15517 H 73.70108916988049 30.19867014692074 105.65367721791753 H 0.0 **** 0.06
15518 H 73.76556929143209 28.483801967331274 106.12762497140724 H 0.0 **** 0.06
15519 H 72.46472673075777 29.065219741868418 105.0593061357261 H 0.0 **** 0.06
15520 H 72.48581896974328 29.539698641987343 106.77462763367564 H 0.0 **** 0.06
15521 C 104.3379581341238 43.98422574281537 35.531401783518504 C 0.0 **** -0.24
15522 H 103.38557939547066 43.497641409274706 35.319386879740165 H 0.0 **** 0.06
15523 H 104.91569198243494 44.06658527269795 34.61153858576296 H 0.0 **** 0.06
15524 H 104.89339752567392 43.39196065300388 36.25839696554203 H 0.0 **** 0.06
15525 H 104.1546134718674 44.978633103693454 35.93668505492485 H 0.0 **** 0.06
15526 C 92.65871623846633 6.849695343212247 83.5386255643296 C 0.0 **** -0.24
15527 H 92.52291067042773 5.775643373429872 83.66689128879432 H 0.0 **** 0.06
15528 H 93.03474581039522 7.280818896435235 84.46629689255383 H 0.0 **** 0.06
15529 H 91.70277480832391 7.308782268865144 83.28544367503605 H 0.0 **** 0.06
15530 H 93.37390175061633 7.031372466285973 82.73605158317542 H 0.0 **** 0.06
15531 C 48.03429819515205 29.942474947077415 25.249460528322004 C 0.0 **** -0.24
15532 H 48.33900923579449 30.30290299682025 24.266311136160596 H 0.0 **** 0.06
15533 H 47.224873433586396 29.219695175301503 25.136275133778724 H 0.0 **** 0.06
15534 H 47.68979587394048 30.781905224903568 25.853806327753944 H 0.0 **** 0.06
15535 H 48.88182736183856 29.46466668352455 25.73983017156536 H 0.0 **** 0.06
15536 C 18.09913381470352 87.94553899188973 23.73215652406526 C 0.0 **** -0.24
15537 H 17.09098973003654 87.6270443005494 23.466273996407697 H 0.0 **** 0.06
15538 H 18.823838078387496 87.26595020714981 23.283652698370883 H 0.0 **** 0.06
15539 H 18.21059874077531 87.93156610040563 24.816369230868176 H 0.0 **** 0.06
15540 H 18.270393995765346 88.955483254525 23.36216151530337 H 0.0 **** 0.06
15541 C 1.4773335121187188 40.899128024719516 84.03896941030982 C 0.0 **** -0.24
15542 H 1.8249319059527522 40.82290196006741 83.00846233578085 H 0.0 **** 0.06
15543 H 2.0869927648509474 40.25804724786897 84.67678675460627 H 0.0 **** 0.06
15544 H 0.4358055751572749 40.584330136917 84.09519802442219 H 0.0 **** 0.06
15545 H 1.56234514914172 41.93355742040973 84.375214589741 H 0.0 **** 0.06
15546 C 83.6830190064884 92.83949603415005 73.36797681924035 C 0.0 **** -0.24
15547 H 83.18186332454707 92.13402242058521 72.70511345997231 H 0.0 **** 0.06
15548 H 84.5573310496195 93.25283790280187 72.86389460662132 H 0.0 **** 0.06
15549 H 83.99678337733951 92.32405487554144 74.27645205937247 H 0.0 **** 0.06
15550 H 82.9972324458285 93.64622430950595 73.62642823981312 H 0.0 **** 0.06
15551 C 81.28552426206568 44.17939026693108 72.39407601754759 C 0.0 **** -0.24
15552 H 80.32314545693322 44.56589961276205 72.7280631058712 H 0.0 **** 0.06
15553 H 81.85237030145763 44.97973831086142 71.91620726471182 H 0.0 **** 0.06
15554 H 81.12464960344221 43.37161376654643 71.68051010882967 H 0.0 **** 0.06
15555 H 81.8423096269727 43.80163987901389 73.25122858924311 H 0.0 **** 0.06
15556 C 59.66266208437524 45.942965874320514 107.197874078887 C 0.0 **** -0.24
15557 H 58.65115352766463 46.34588419914211 107.23453555523065 H 0.0 **** 0.06
15558 H 59.624819828510596 44.889525490047724 106.91970829072608 H 0.0 **** 0.06
15559 H 60.13086363508859 46.04413336879335 108.1775665642634 H 0.0 **** 0.06
15560 H 60.24571745010593 46.49245725611258 106.45815347377001 H 0.0 **** 0.06
15561 C 71.20698840856909 59.74981470328777 71.16044265886566 C 0.0 **** -0.24
15562 H 70.63136973838732 60.18443830304932 71.97771944186827 H 0.0 **** 0.06
15563 H 71.79685302930068 58.91319130793926 71.53566647888071 H 0.0 **** 0.06
15564 H 71.87337438603254 60.505693708959996 70.74408037098807 H 0.0 **** 0.06
15565 H 70.52729683924505 59.39637933690909 70.38526289857165 H 0.0 **** 0.06
15566 C 14.70890788602182 47.2733695668353 41.12972817634305 C 0.0 **** -0.24
15567 H 15.646684409336899 47.189688992465335 40.58053457289503 H 0.0 **** 0.06
15568 H 14.718640647847707 46.580792502927295 41.971569708155386 H 0.0 **** 0.06
15569 H 13.878420997931528 47.02910371888498 40.467261879711316 H 0.0 **** 0.06
15570 H 14.592369968906695 48.292376450147685 41.49833601044209 H 0.0 **** 0.06
15571 C 97.60907691848647 17.736040468122937 54.72546822038032 C 0.0 **** -0.24
15572 H 98.42623318058253 17.621302330822957 55.43776498092848 H 0.0 **** 0.06
15573 H 98.0153437089524 17.831969915182896 53.7184703508384 H 0.0 **** 0.06
15574 H 97.03409870529543 18.627915631573075 54.97306380388261 H 0.0 **** 0.06
15575 H 96.96029591649543 16.860403749810203 54.77408413678904 H 0.0 **** 0.06
15576 C 4.639891814499592 17.776517462558985 16.805111419187426 C 0.0 **** -0.24
15577 H 5.389795610890943 17.159759480598325 17.29891874632 H 0.0 **** 0.06
15578 H 3.801937598245061 17.151540087648584 16.495653996078033 H 0.0 **** 0.06
15579 H 5.080133795946807 18.254327663125224 15.930003845951944 H 0.0 **** 0.06
15580 H 4.286252085573409 18.541068621055786 17.496583987864312 H 0.0 **** 0.06
15581 C 16.7316540783886 107.34570862231277 65.99688091654718 C 0.0 **** -0.24
15582 H 16.123480327181852 107.8031569351909 65.21644539823855 H 0.0 **** 0.06
15583 H 16.388054921478414 107.68691535503635 66.97266694628294 H 0.0 **** 0.06
15584 H 17.773902763312122 107.63092202793949 65.85746856434419 H 0.0 **** 0.06
15585 H 16.641507969306474 106.2604728917209 65.93747540098347 H 0.0 **** 0.06
15586 C 91.42379658072844 14.978483489062398 6.535024611847234 C 0.0 **** -0.24
15587 H 91.39749931148435 15.782826718525826 5.800242835064751 H 0.0 **** 0.06
15588 H 91.98720660728378 14.137543828503453 6.132923376962793 H 0.0 **** 0.06
15589 H 90.40630919238691 14.660642239206254 6.761376527814178 H 0.0 **** 0.06
15590 H 91.90409443141243 15.336300264394538 7.446314931166995 H 0.0 **** 0.06
15591 C 28.88481275954794 25.429937645179933 76.44453426549848 C 0.0 **** -0.24
15592 H 28.057952200502427 24.919781947123568 76.93787350499771 H 0.0 **** 0.06
15593 H 28.821247586600833 26.50043079113624 76.64126704410151 H 0.0 **** 0.06
15594 H 28.8307473765625 25.254170527256434 75.37027605383157 H 0.0 **** 0.06
15595 H 29.83018142745331 25.045382722760763 76.82919974291796 H 0.0 **** 0.06
15596 C 14.742361927090045 103.45384627228835 87.7557993522264 C 0.0 **** -0.24
15597 H 13.880918149797537 103.3193972244649 87.10131027209223 H 0.0 **** 0.06
15598 H 14.479208852476631 104.13293360605569 88.56750051245083 H 0.0 **** 0.06
15599 H 15.570986952458298 103.87276716177459 87.18540064288115 H 0.0 **** 0.06
15600 H 15.036891086612172 102.4886802391179 88.17014227615124 H 0.0 **** 0.06
15601 C 67.61298909613117 103.23143294941599 50.82196974955065 C 0.0 **** -0.24
15602 H 68.48736368819362 103.12708164488527 51.46501934520461 H 0.0 **** 0.06
15603 H 67.64154036474667 102.46676364575609 50.04455954024388 H 0.0 **** 0.06
15604 H 67.61720193204701 104.21942664265652 50.36140532875339 H 0.0 **** 0.06
15605 H 66.70800268277151 103.11161100418673 51.41609016573375 H 0.0 **** 0.06
15606 C 96.72008600384831 40.370030496024015 18.45463140250702 C 0.0 **** -0.24
15607 H 97.41880274861427 41.1736461506859 18.690531233499215 H 0.0 **** 0.06
15608 H 96.53028038197748 40.357694744586695 17.38112474539281 H 0.0 **** 0.06
15609 H 95.78398123417374 40.53620520471986 18.987904033342346 H 0.0 **** 0.06
15610 H 97.14868428602978 39.41541667640337 18.7599440882166 H 0.0 **** 0.06
15611 C 29.68547431871972 41.36474943214483 51.250555796299494 C 0.0 **** -0.24
15612 H 30.27689096528652 40.858893561842706 52.01475546221508 H 0.0 **** 0.06
15613 H 30.352052391089636 41.87920602920707 50.55752476882782 H 0.0 **** 0.06
15614 H 29.023742770930895 42.0887423307791 51.72450983898668 H 0.0 **** 0.06
15615 H 29.09142004117961 40.63016430564642 50.70650792112599 H 0.0 **** 0.06
15616 C 63.492407282178704 67.42399859772323 24.831155104979327 C 0.0 **** -0.24
15617 H 63.25587296050389 66.82282452748898 23.952838448082794 H 0.0 **** 0.06
15618 H 64.45414810206944 67.10881091608537 25.23763665936791 H 0.0 **** 0.06
15619 H 62.71713361069777 67.28804983685166 25.58448403659513 H 0.0 **** 0.06
15620 H 63.54502559209095 68.47465252706837 24.54879644715216 H 0.0 **** 0.06
15621 C 78.58191642125018 53.75622218796535 79.90157525128245 C 0.0 **** -0.24
15622 H 78.24399332492533 52.92574713481541 79.2803352690814 H 0.0 **** 0.06
15623 H 78.4298495864594 54.6943222699683 79.36709062730208 H 0.0 **** 0.06
15624 H 79.64147202613293 53.63328658297721 80.12597360616866 H 0.0 **** 0.06
15625 H 78.01264830287681 53.76964520541966 80.83019057505675 H 0.0 **** 0.06
15626 C 60.777887915134556 53.38323537944518 6.292531102542199 C 0.0 **** -0.24
15627 H 59.95845800083387 52.66426776867592 6.329248047905793 H 0.0 **** 0.06
15628 H 60.79535560202163 53.86375194514741 5.3140125268729435 H 0.0 **** 0.06
15629 H 61.72259418993906 52.86581327902203 6.4597354391071065 H 0.0 **** 0.06
15630 H 60.634164799805205 54.137361125533104 7.0661342790698995 H 0.0 **** 0.06
15631 C 57.89275180985027 41.583587893269566 44.10845099588454 C 0.0 **** -0.24
15632 H 58.38163907056233 40.83983441255466 44.7377616306178 H 0.0 **** 0.06
15633 H 58.40309643792142 41.63853158953969 43.146965475780604 H 0.0 **** 0.06
15634 H 57.933922724699244 42.55716620202107 44.59795599940027 H 0.0 **** 0.06
15635 H 56.851899634867436 41.298233153571466 43.95345641069454 H 0.0 **** 0.06
15636 C 102.5551734875404 77.9168689489985 62.738681481629044 C 0.0 **** -0.24
15637 H 101.6160535538804 77.38066662044166 62.60918405481095 H 0.0 **** 0.06
15638 H 103.37688999247781 77.3067143953781 62.36279412616949 H 0.0 **** 0.06
15639 H 102.71110582464813 78.12455617343801 63.7970424599049 H 0.0 **** 0.06
15640 H 102.5175739026296 78.85576295149575 62.18541189705695 H 0.0 **** 0.06
15641 C 99.62773959180826 64.79381842281987 30.092072596593937 C 0.0 **** -0.24
15642 H 98.92134970496971 65.5151324054678 29.68086298704452 H 0.0 **** 0.06
15643 H 99.40030969186438 64.62218393599693 31.143936219870653 H 0.0 **** 0.06
15644 H 100.64144126911562 65.18250837476563 29.997299859296817 H 0.0 **** 0.06
15645 H 99.54603813730819 63.85452306893853 29.54483773895302 H 0.0 **** 0.06
15646 C 107.28964794036015 100.45564477631761 49.70702532434291 C 0.0 **** -0.24
15647 H 108.25633669012353 100.18439866665493 49.28323262670244 H 0.0 **** 0.06
15648 H 106.78502848736991 99.55752747664862 50.06307782522234 H 0.0 **** 0.06
15649 H 106.67918586793576 100.93610632800356 48.942461646844635 H 0.0 **** 0.06
15650 H 107.43863054236935 101.14373941148042 50.53930582603175 H 0.0 **** 0.06
15651 C 61.579367719628365 11.897699331685885 69.89633500510575 C 0.0 **** -0.24
15652 H 62.4016333009657 12.421813968524674 69.40909786551468 H 0.0 **** 0.06
15653 H 61.971142819838164 11.286052437888145 70.71062570175442 H 0.0 **** 0.06
15654 H 61.0761058524934 11.258881624965625 69.17157903159803 H 0.0 **** 0.06
15655 H 60.87182262288576 12.623362660152509 70.29579021811142 H 0.0 **** 0.06
15656 C 26.697348761996437 93.03453661521627 48.43380666759248 C 0.0 **** -0.24
15657 H 26.600344605300506 91.95043569797559 48.47212326394353 H 0.0 **** 0.06
15658 H 27.636302318951948 93.29835987625592 47.94651989678778 H 0.0 **** 0.06
15659 H 26.689524858069404 93.43632251914681 49.447281266728396 H 0.0 **** 0.06
15660 H 25.86425298101969 93.45475923781376 47.87027385081976 H 0.0 **** 0.06
15661 C 97.81548729810335 54.19432905211352 16.87777467530759 C 0.0 **** -0.24
15662 H 97.37606290813156 54.42960376640579 17.846949509933964 H 0.0 **** 0.06
15663 H 98.43221708587359 55.030204724714366 16.54614214099807 H 0.0 **** 0.06
15664 H 97.02230176084056 54.016700566086 16.152300600288513 H 0.0 **** 0.06
15665 H 98.43367155904323 53.300236614286575 16.96724460090394 H 0.0 **** 0.06
15666 C 78.09648642149443 23.30020966961885 83.31880102309813 C 0.0 **** -0.24
15667 H 77.00801208182176 23.337076120838077 83.28304761961613 H 0.0 **** 0.06
15668 H 78.48300486872886 23.026090843379222 82.33711562064782 H 0.0 **** 0.06
15669 H 78.41023419225998 22.55862068519889 84.05432331466702 H 0.0 **** 0.06
15670 H 78.48321446529879 24.278682493949788 83.60330094553912 H 0.0 **** 0.06
15671 C 85.66816531907938 53.40268068414108 3.2037667384555277 C 0.0 **** -0.24
15672 H 85.36522409854678 54.41041522241959 3.4893584371553743 H 0.0 **** 0.06
15673 H 85.00838820296295 53.03572154950589 2.417911162847858 H 0.0 **** 0.06
15674 H 85.60373814271253 52.745338136046 4.06986874834719 H 0.0 **** 0.06
15675 H 86.69460137463423 53.42286374944058 2.837278620714713 H 0.0 **** 0.06
15676 C 38.64958842385269 12.616647921391404 107.90973617265192 C 0.0 **** -0.24
15677 H 37.5600214348147 12.638548614434768 107.95406532347394 H 0.0 **** 0.06
15678 H 39.00891095105925 13.49383201871791 107.37143118866757 H 0.0 **** 0.06
15679 H 38.97417901463976 11.713938181322533 107.39164644629801 H 0.0 **** 0.06
15680 H 39.05338008055952 12.61972131097508 108.9222793694637 H 0.0 **** 0.06
15681 C 9.481943900593109 16.910595313727597 51.74942878174307 C 0.0 **** -0.24
15682 H 9.737536335880478 16.85248889214744 50.69168543597997 H 0.0 **** 0.06
15683 H 9.054805203849654 17.889848365382903 51.96694403947833 H 0.0 **** 0.06
15684 H 10.380503888434902 16.764156344300744 52.34925747969293 H 0.0 **** 0.06
15685 H 8.754950328422751 16.134504553346677 51.989533675589925 H 0.0 **** 0.06
15686 C 47.78790499238315 13.028587441103582 21.190836852986138 C 0.0 **** -0.24
15687 H 48.423058158012395 12.768314429106397 22.03839000670507 H 0.0 **** 0.06
15688 H 47.15527664717149 12.17700006766276 20.93740981815958 H 0.0 **** 0.06
15689 H 48.41071789614696 13.286099683990642 20.33508904186482 H 0.0 **** 0.06
15690 H 47.16188214788309 13.880165423585652 21.45487877598775 H 0.0 **** 0.06
15691 C 83.3316459463336 30.80586379508526 39.482020618920075 C 0.0 **** -0.24
15692 H 83.97400598448971 30.156275908753514 38.88786155054527 H 0.0 **** 0.06
15693 H 82.79236417710635 31.48574353299165 38.82213153799319 H 0.0 **** 0.06
15694 H 83.9420816270054 31.383314721974045 40.1774252836567 H 0.0 **** 0.06
15695 H 82.61957155256329 30.199795206404247 40.04172479423211 H 0.0 **** 0.06
15696 C 35.077147604710945 102.87616561514395 77.84462144286869 C 0.0 **** -0.24
15697 H 34.20561625700799 103.03755590407746 78.4791970157664 H 0.0 **** 0.06
15698 H 34.90537380962314 102.00951184606154 77.20612486525184 H 0.0 **** 0.06
15699 H 35.95332814199344 102.7006255696642 78.46884914574676 H 0.0 **** 0.06
15700 H 35.24249052753618 103.7581677602846 77.2249385762687 H 0.0 **** 0.06
15701 C 100.41578569955749 20.108554310236713 89.0469991880372 C 0.0 **** -0.24
15702 H 100.5243151407322 20.621503937222798 90.00393023481277 H 0.0 **** 0.06
15703 H 99.49661982650429 19.521782125399454 89.05343495236622 H 0.0 **** 0.06
15704 H 101.26893758602904 19.448326500547893 88.89054162683885 H 0.0 **** 0.06
15705 H 100.37273254616093 20.844689481207496 88.24413536952028 H 0.0 **** 0.06
15706 C 30.055402900961212 95.89697286429407 75.68532066027667 C 0.0 **** -0.24
15707 H 30.945472753167394 96.39219799342034 75.29784218513682 H 0.0 **** 0.06
15708 H 30.29846415274534 95.39615532156367 76.62214073461506 H 0.0 **** 0.06
15709 H 29.703619397037073 95.1630060403977 74.96059111708746 H 0.0 **** 0.06
15710 H 29.27528959850082 96.63835885499304 75.86033479963298 H 0.0 **** 0.06
15711 C 57.55431500390773 37.362083668143725 107.54427880460082 C 0.0 **** -0.24
15712 H 58.120794798020285 37.373651662885834 108.4756818911369 H 0.0 **** 0.06
15713 H 58.23533517079042 37.209386816711685 106.70695027098537 H 0.0 **** 0.06
15714 H 57.03684794203414 38.31414253563287 107.42273597852073 H 0.0 **** 0.06
15715 H 56.82472730191296 36.55318660237225 107.57303906510973 H 0.0 **** 0.06
15716 C 2.8392962709466794 21.289726992770653 3.089111558883758 C 0.0 **** -0.24
15717 H 3.852401344089614 21.69029003328893 3.0540085275490867 H 0.0 **** 0.06
15718 H 2.54713049517357 21.13161537689504 4.12772014134066 H 0.0 **** 0.06
15719 H 2.8062985764689827 20.340598303652683 2.553589591573086 H 0.0 **** 0.06
15720 H 2.1526941120967162 21.994843574274142 2.6220057028499753 H 0.0 **** 0.06
15721 C 58.02328674863304 31.03308181309537 95.14275700848702 C 0.0 **** -0.24
15722 H 57.58782320855207 30.194204978512907 95.68574966867959 H 0.0 **** 0.06
15723 H 58.580444336094274 30.660921905524603 94.28250743330963 H 0.0 **** 0.06
15724 H 58.69608250407339 31.58223014594852 95.8017644920944 H 0.0 **** 0.06
15725 H 57.22821318046729 31.697012739744736 94.80170471533381 H 0.0 **** 0.06
15726 C 17.373465843712296 54.99594622500311 26.027156979802584 C 0.0 **** -0.24
15727 H 16.374330589534324 54.594431576668796 26.195072355729224 H 0.0 **** 0.06
15728 H 18.106078556983192 54.19189783597932 26.103036535132645 H 0.0 **** 0.06
15729 H 17.590457814202324 55.757284063264706 26.776802278032136 H 0.0 **** 0.06
15730 H 17.423627935719026 55.44014634383879 25.03294176579473 H 0.0 **** 0.06
15731 C 7.927339444702682 108.82254847314393 1.2444079636431553 C 0.0 **** -0.24
15732 H 7.453400467257296 108.85596786718281 0.26373277725275557 H 0.0 **** 0.06
15733 H 7.792073720750366 109.78160590647884 1.746682787879294 H 0.0 **** 0.06
15734 H 8.991858440754129 108.62041013735237 1.1266189349727398 H 0.0 **** 0.06
15735 H 7.471219797219618 108.03219477227346 1.8411899968930499 H 0.0 **** 0.06
15736 C 52.11016873141634 76.71560389948175 97.22458506944082 C 0.0 **** -0.24
15737 H 53.192008093127185 76.66848082573625 97.10019908535105 H 0.0 **** 0.06
15738 H 51.8511335292099 77.59147459960442 97.82041910816741 H 0.0 **** 0.06
15739 H 51.76244025750012 75.8163268413632 97.73229513325163 H 0.0 **** 0.06
15740 H 51.6345404052708 76.78794527825943 96.24661509411737 H 0.0 **** 0.06
15741 C 96.58304687702852 43.071477187222484 45.35817214489765 C 0.0 **** -0.24
15742 H 97.1503969762763 43.88708790512912 44.910549699242154 H 0.0 **** 0.06
15743 H 97.25364964012387 42.24063180121506 45.579072070221855 H 0.0 **** 0.06
15744 H 95.81139747078356 42.74124390453357 44.6624171165771 H 0.0 **** 0.06
15745 H 96.11604001089512 43.41764467490799 46.28077583632739 H 0.0 **** 0.06
15746 C 109.06568666671403 11.064074478490966 12.08444915526627 C 0.0 **** -0.24
15747 H 108.32606629775725 10.263587134406919 12.038856677574017 H 0.0 **** 0.06
15748 H 109.94542095666209 10.776507237884971 11.508215215957193 H 0.0 **** 0.06
15749 H 109.35009093235296 11.236397492029027 13.122011108664367 H 0.0 **** 0.06
15750 H 108.63972717065377 11.976130908734774 11.666865130888198 H 0.0 **** 0.06
15751 C 31.22758665576987 15.902122811533431 33.97825222227263 C 0.0 **** -0.24
15752 H 31.47707497328463 16.540027799559056 34.82610873449053 H 0.0 **** 0.06
15753 H 30.777371253523143 14.977866782369972 34.33955087521531 H 0.0 **** 0.06
15754 H 32.13380037368813 15.670724609584525 33.41814647157216 H 0.0 **** 0.06
15755 H 30.521430572191434 16.42008677320773 33.32849162453999 H 0.0 **** 0.06
15756 C 36.13903963335942 66.6090960712142 63.502302794404045 C 0.0 **** -0.24
15757 H 36.25044303474061 65.6110298350259 63.92797991992899 H 0.0 **** 0.06
15758 H 35.09710927984204 66.91997087304702 63.57423906033523 H 0.0 **** 0.06
15759 H 36.4425451151716 66.59314455472719 62.45624985101921 H 0.0 **** 0.06
15760 H 36.76653351106428 67.31063762974026 64.05222983470202 H 0.0 **** 0.06
15761 C 20.19459870277157 65.3505891892209 74.84391648545132 C 0.0 **** -0.24
15762 H 19.65839753254778 64.78968842048275 74.07787762393703 H 0.0 **** 0.06
15763 H 20.86556687320831 66.06555302185461 74.36715205302647 H 0.0 **** 0.06
15764 H 20.775142754064092 64.66160072507924 75.45893799526418 H 0.0 **** 0.06
15765 H 19.48037744668821 65.88351906860856 75.47078693005815 H 0.0 **** 0.06
15766 C 12.175680140716423 7.2198213947097685 85.46866674169416 C 0.0 **** -0.24
15767 H 12.787962562769906 6.403813808029142 85.08356056784544 H 0.0 **** 0.06
15768 H 11.124025938522692 6.935066493879162 85.42599371208541 H 0.0 **** 0.06
15769 H 12.336563349269738 8.111254445396995 84.86252850282375 H 0.0 **** 0.06
15770 H 12.455037009783808 7.426939704839597 86.50198645874542 H 0.0 **** 0.06
15771 C 5.967971275914039 54.091332712900396 57.92915902972271 C 0.0 **** -0.24
15772 H 6.063044203421541 55.163775698074176 57.75893550715551 H 0.0 **** 0.06
15773 H 6.919947276097147 53.694807200602185 58.28329758489258 H 0.0 **** 0.06
15774 H 5.693598622999559 53.59834970857631 56.99596273692214 H 0.0 **** 0.06
15775 H 5.197102511557162 53.9093336629515 58.67707713350998 H 0.0 **** 0.06
15776 C 33.78977099270412 79.20661301876976 51.722011178773904 C 0.0 **** -0.24
15777 H 34.5246005296176 79.46976311314242 52.48240739737828 H 0.0 **** 0.06
15778 H 32.83290801583286 79.66925439027585 51.96538353838532 H 0.0 **** 0.06
15779 H 33.671184054598854 78.12281365632481 51.69101085901952 H 0.0 **** 0.06
15780 H 34.12938506813859 79.56249675514988 50.749932554855434 H 0.0 **** 0.06
15781 C 17.5682271082496 24.579976607658466 73.87933501406965 C 0.0 **** -0.24
15782 H 18.21237797124567 24.403604960485552 73.01789402835621 H 0.0 **** 0.06
15783 H 17.574970016965533 23.699343082752137 74.52324657197056 H 0.0 **** 0.06
15784 H 16.551100454822024 24.77307615337901 73.53832650894054 H 0.0 **** 0.06
15785 H 17.93490090885291 25.441102466734492 74.43683423131102 H 0.0 **** 0.06
15786 C 57.26942113386909 46.98112850372911 21.399744932963557 C 0.0 **** -0.24
15787 H 57.278166469865255 46.93254713604529 22.488410267065944 H 0.0 **** 0.06
15788 H 58.26988382451816 46.77028936449079 21.01869867879944 H 0.0 **** 0.06
15789 H 56.96224233661246 47.97744672030797 21.08291686318165 H 0.0 **** 0.06
15790 H 56.569443816441236 46.24337615616085 21.00919784713915 H 0.0 **** 0.06
15791 C 103.77799974032061 57.12015145435954 56.23602624467915 C 0.0 **** -0.24
15792 H 102.71694726769894 57.366270443803906 56.271479523473715 H 0.0 **** 0.06
15793 H 104.13872111137745 56.92534721507806 57.24588378570715 H 0.0 **** 0.06
15794 H 104.3309762331683 57.95520874562054 55.806812843652274 H 0.0 **** 0.06
15795 H 103.92449786135197 56.23172215460006 55.62011420311007 H 0.0 **** 0.06
15796 C 101.38232258456901 52.82372407965169 71.54602246640322 C 0.0 **** -0.24
15797 H 102.29044126662399 52.433189637163906 71.08582988167578 H 0.0 **** 0.06
15798 H 100.76074628708889 53.29078454692175 70.78194308543175 H 0.0 **** 0.06
15799 H 101.64702181233213 53.563900850121016 72.30107248256972 H 0.0 **** 0.06
15800 H 100.83222263332073 52.00813098411157 72.01338283763059 H 0.0 **** 0.06
15801 C 56.0899504264339 28.765075420754954 46.24177965941982 C 0.0 **** -0.24
15802 H 56.04043774110556 29.446742994424255 47.09119281107979 H 0.0 **** 0.06
15803 H 56.801431387153144 29.148663492495018 45.50946485500816 H 0.0 **** 0.06
15804 H 55.10522056906516 28.68315008988904 45.78378062487195 H 0.0 **** 0.06
15805 H 56.41463817052464 27.782621216113228 46.58455723971764 H 0.0 **** 0.06
15806 C 39.54552811287934 84.31099564503754 102.19459552770621 C 0.0 **** -0.24
15807 H 39.832490881347354 84.03311557563603 103.20884939556328 H 0.0 **** 0.06
15808 H 38.62324208558647 84.89112995473957 102.22468752713243 H 0.0 **** 0.06
15809 H 39.388529722151645 83.40904784595187 101.60137496687679 H 0.0 **** 0.06
15810 H 40.3371950112589 84.90891772218339 101.74412851593422 H 0.0 **** 0.06
15811 C 11.614358564333259 36.492162417455575 105.0759385492201 C 0.0 **** -0.24
15812 H 10.59177798283522 36.172380728332826 104.87543046813752 H 0.0 **** 0.06
15813 H 12.175715355166055 35.66343287868811 105.5072108051633 H 0.0 **** 0.06
15814 H 11.603397168225182 37.327576456686884 105.77510450456154 H 0.0 **** 0.06
15815 H 12.085756958740962 36.80496521726961 104.14370742135152 H 0.0 **** 0.06
15816 C 17.7061386243836 43.873957812547616 6.225301984571615 C 0.0 **** -0.24
15817 H 17.605719546203844 43.274101861389255 7.129979121612223 H 0.0 **** 0.06
15818 H 16.830034711241296 43.726832582610115 5.593583715233365 H 0.0 **** 0.06
15819 H 18.60098326363071 43.567652979771026 5.6835065574738906 H 0.0 **** 0.06
15820 H 17.787816976458515 44.927243826420465 6.494138543966699 H 0.0 **** 0.06
15821 C 102.50190346992295 14.697041929748384 105.32769157629853 C 0.0 **** -0.24
15822 H 101.46697478598612 14.376346471135161 105.21145960073768 H 0.0 **** 0.06
15823 H 102.87028960025665 15.089051982500962 104.37898049975065 H 0.0 **** 0.06
15824 H 103.11336332848816 13.847363922865469 105.63272932482768 H 0.0 **** 0.06
15825 H 102.55694306812963 15.47595488463309 106.08889927965956 H 0.0 **** 0.06
15826 C 57.408666771730246 45.654067188491176 52.27332990716451 C 0.0 **** -0.24
15827 H 56.38255289421998 46.01255231078167 52.34273810893143 H 0.0 **** 0.06
15828 H 57.590821394602735 45.267457561390096 51.270560961989304 H 0.0 **** 0.06
15829 H 57.567700076614294 44.86113976534961 53.00355064814312 H 0.0 **** 0.06
15830 H 58.09591362542688 46.47661183838099 52.47529278087518 H 0.0 **** 0.06
15831 C 56.17435092258992 56.43585540832018 72.03345984273783 C 0.0 **** -0.24
15832 H 56.97649768490926 55.85726067625268 72.49299943269801 H 0.0 **** 0.06
15833 H 55.271677394452 56.34735360376186 72.6381877217684 H 0.0 **** 0.06
15834 H 55.97988166529792 56.054662190974284 71.03140881646154 H 0.0 **** 0.06
15835 H 56.47109512592452 57.48291577173171 71.97334884787924 H 0.0 **** 0.06
15836 C 67.77393585031751 43.34977006335737 33.425658206318495 C 0.0 **** -0.24
15837 H 66.85441459591155 43.93203360109317 33.35587451250718 H 0.0 **** 0.06
15838 H 68.63232909736053 44.01969479177876 33.37793247148542 H 0.0 **** 0.06
15839 H 67.81871065974723 42.64140163075581 32.59800231268523 H 0.0 **** 0.06
15840 H 67.78803247277884 42.806629496132246 34.370155126268415 H 0.0 **** 0.06
15841 C 100.96174215371002 11.743664210714712 60.53615834071043 C 0.0 **** -0.24
15842 H 101.29109720398958 12.386201782054087 59.71914021328956 H 0.0 **** 0.06
15843 H 101.82780616385844 11.269774344321092 60.99705891233526 H 0.0 **** 0.06
15844 H 100.29057528340812 10.977292062684313 60.14724103188591 H 0.0 **** 0.06
15845 H 100.4359476535974 12.343183892615428 61.2790958515307 H 0.0 **** 0.06
15846 C 56.75864725778246 11.255915871560855 94.82224100923118 C 0.0 **** -0.24
15847 H 56.69306479955702 12.233092253302953 95.30005906337773 H 0.0 **** 0.06
15848 H 55.95405925968447 11.153584902271145 94.09306376038029 H 0.0 **** 0.06
15849 H 56.66647693920464 10.475345618863416 95.57754199847525 H 0.0 **** 0.06
15850 H 57.71992060565864 11.162506624713833 94.31796620797061 H 0.0 **** 0.06
15851 C 46.523535746914604 10.582882246697183 28.45702418302411 C 0.0 **** -0.24
15852 H 45.9181345176907 11.356992620066439 28.92954443753534 H 0.0 **** 0.06
15853 H 45.86986068737116 9.82906860069222 28.016699493922296 H 0.0 **** 0.06
15854 H 47.16456705876604 10.117616265535709 29.205091180424503 H 0.0 **** 0.06
15855 H 47.13950703020265 11.02997014619003 27.676301640786534 H 0.0 **** 0.06
15856 C 0.505018874870359 98.07493325037609 71.03456504130003 C 0.0 **** -0.24
15857 H 1.5400866770281567 98.30620104008807 71.28454440029407 H 0.0 **** 0.06
15858 H -0.10426634760865738 98.9714654843342 71.14773005235509 H 0.0 **** 0.06
15859 H 0.1356333264992884 97.2977530634016 71.70302528461667 H 0.0 **** 0.06
15860 H 0.4502438760011387 97.72398226651232 70.0044636245463 H 0.0 **** 0.06
15861 C 91.12171651319386 21.698928099096694 18.31343983140424 C 0.0 **** -0.24
15862 H 91.45007661754295 22.653724949654393 17.90181558712463 H 0.0 **** 0.06
15863 H 90.32083260358587 21.869577361429638 19.032055583090056 H 0.0 **** 0.06
15864 H 91.96005662855777 21.21144188068157 18.81072031909619 H 0.0 **** 0.06
15865 H 90.75789086051611 21.062138103971016 17.50725235609562 H 0.0 **** 0.06
15866 C 68.17607322496309 80.20356171300024 47.34154466912244 C 0.0 **** -0.24
15867 H 67.83886348959606 79.17469937715703 47.21328016827812 H 0.0 **** 0.06
15868 H 68.11458753589523 80.47610247819989 48.39515033858592 H 0.0 **** 0.06
15869 H 67.54137454358056 80.86840841519385 46.75631969308853 H 0.0 **** 0.06
15870 H 69.20766899273309 80.29194897504009 47.00191149933718 H 0.0 **** 0.06
15871 C 70.30843329038493 95.26340101489473 9.111726206360828 C 0.0 **** -0.24
15872 H 69.24048274237134 95.10425926322142 9.265207337228894 H 0.0 **** 0.06
15873 H 70.65349007682687 96.0657263724757 9.764362957456278 H 0.0 **** 0.06
15874 H 70.48799667848175 95.53720297998478 8.071517384297124 H 0.0 **** 0.06
15875 H 70.8497555043819 94.34596914923571 9.344940582533829 H 0.0 **** 0.06
15876 C 87.43156102661277 49.315075506765325 69.98206383491299 C 0.0 **** -0.24
15877 H 86.40063657519897 49.167321459282626 69.66082659119414 H 0.0 **** 0.06
15878 H 87.75661125593012 50.31870204858598 69.70728393676731 H 0.0 **** 0.06
15879 H 88.07197965325656 48.578893817496436 69.4950100116769 H 0.0 **** 0.06
15880 H 87.49608912462168 49.194921443756826 71.06315354074104 H 0.0 **** 0.06
15881 C 44.00188696353345 94.14714490864009 18.66135001846439 C 0.0 **** -0.24
15882 H 44.50712643458189 95.01871051332483 18.245414534623194 H 0.0 **** 0.06
15883 H 43.80597230895472 93.42746392308749 17.866252156328656 H 0.0 **** 0.06
15884 H 43.05972562793727 94.45640130390063 19.11362134284707 H 0.0 **** 0.06
15885 H 44.63569391242055 93.6879774326136 19.42051658934892 H 0.0 **** 0.06
15886 C 99.0199325685727 54.53336963916793 57.78208023129792 C 0.0 **** -0.24
15887 H 98.71479055416103 54.385304767355215 56.74704210604557 H 0.0 **** 0.06
15888 H 99.78025227337395 53.79762954959693 58.04614723297103 H 0.0 **** 0.06
15889 H 98.15610403979201 54.41418415278824 58.43679543909312 H 0.0 **** 0.06
15890 H 99.42975179516367 55.53700934296963 57.900128794103104 H 0.0 **** 0.06
15891 C 61.29638485900347 79.43504538841721 77.58962303307902 C 0.0 **** -0.24
15892 H 60.60125807157033 79.03467705730783 78.32773130558917 H 0.0 **** 0.06
15893 H 62.29913731331396 79.47163001872154 78.0169882309713 H 0.0 **** 0.06
15894 H 60.98498450633852 80.43948892511396 77.30316909808244 H 0.0 **** 0.06
15895 H 61.29983624324976 78.79153951168209 76.70926333981089 H 0.0 **** 0.06
15896 C 29.88687699425958 60.71297179002505 58.96924640378012 C 0.0 **** -0.24
15897 H 29.219998809256964 60.011203211541215 59.47176236619498 H 0.0 **** 0.06
15898 H 30.85638906655575 60.71129660441889 59.46750577852464 H 0.0 **** 0.06
15899 H 29.457701784354185 61.714048839874465 59.010212718613786 H 0.0 **** 0.06
15900 H 30.011494470430875 60.41386464951324 57.92896316305075 H 0.0 **** 0.06
15901 C 74.12146466929269 98.30653653539738 106.50762147535497 C 0.0 **** -0.24
15902 H 73.31669921571952 99.04016115057021 106.47287524649755 H 0.0 **** 0.06
15903 H 74.55783300398343 98.29268055241005 107.50656069807512 H 0.0 **** 0.06
15904 H 74.88732559956328 98.57304100691738 105.7797559462338 H 0.0 **** 0.06
15905 H 73.7228638902786 97.31937827028219 106.27033279131675 H 0.0 **** 0.06
15906 C 15.366660953295025 93.74150963352935 46.6448202330987 C 0.0 **** -0.24
15907 H 14.632377461167309 94.16844808122809 47.32822362608077 H 0.0 **** 0.06
15908 H 15.993524455202149 93.03121958453536 47.18340266112715 H 0.0 **** 0.06
15909 H 15.987839981258276 94.53757062595137 46.234684451552205 H 0.0 **** 0.06
15910 H 14.850739149762532 93.22824290494425 45.832860344522786 H 0.0 **** 0.06
15911 C 26.944221718462387 62.64812471503812 71.61329261570057 C 0.0 **** -0.24
15912 H 26.15930642705976 62.030851520552716 72.04906847360508 H 0.0 **** 0.06
15913 H 27.852124288712844 62.55401515988545 72.21009428963424 H 0.0 **** 0.06
15914 H 26.623177342400595 63.68955799650479 71.60162742629426 H 0.0 **** 0.06
15915 H 27.14275203822521 62.31719499307228 70.5937956296764 H 0.0 **** 0.06
15916 C 11.03556626254507 20.774234860603173 81.6129802033106 C 0.0 **** -0.24
15917 H 11.348968987059699 21.38886220373567 80.76980776159257 H 0.0 **** 0.06
15918 H 11.7714239818307 19.98846388572946 81.78287793653675 H 0.0 **** 0.06
15919 H 10.066879038777701 20.32540361597853 81.39595398288753 H 0.0 **** 0.06
15920 H 10.955525719854485 21.39629427999182 82.5051172508509 H 0.0 **** 0.06
15921 C 29.737617364088933 82.8266579710708 96.84671924808777 C 0.0 **** -0.24
15922 H 30.35713587689977 83.64216238835786 97.22031025008653 H 0.0 **** 0.06
15923 H 29.124663159848865 82.43463013972996 97.65781550953429 H 0.0 **** 0.06
15924 H 30.37737183464862 82.03486458664958 96.45757365189428 H 0.0 **** 0.06
15925 H 29.092309600171205 83.19798973384201 96.04947802717851 H 0.0 **** 0.06
15926 C 60.575179441533805 83.80764360510886 12.77391526116898 C 0.0 **** -0.24
15927 H 60.04843087863489 84.43950786126726 13.488709884875504 H 0.0 **** 0.06
15928 H 61.498240421965335 84.29872064075059 12.466536644700057 H 0.0 **** 0.06
15929 H 59.94348367633654 83.6409350871375 11.901753829097487 H 0.0 **** 0.06
15930 H 60.81044501263412 82.85085977418606 13.239957822793002 H 0.0 **** 0.06
15931 C 45.05603262554569 88.49779013838678 82.56995708304333 C 0.0 **** -0.24
15932 H 44.48279812295064 87.68247390834031 82.12896105223695 H 0.0 **** 0.06
15933 H 44.63716987504985 89.45087519969191 82.24856063554847 H 0.0 **** 0.06
15934 H 46.09437821990978 88.42815558102946 82.24475967963144 H 0.0 **** 0.06
15935 H 45.01065558384104 88.42769728447414 83.65691053005162 H 0.0 **** 0.06
15936 C 52.7406763916522 101.90167612023677 49.06041567385705 C 0.0 **** -0.24
15937 H 52.64652972362236 102.23536598250867 50.094410551138935 H 0.0 **** 0.06
15938 H 52.985235504212795 100.8391598009376 49.04247624672166 H 0.0 **** 0.06
15939 H 53.53259811891992 102.46508546695992 48.5677954278824 H 0.0 **** 0.06
15940 H 51.79825335871852 102.0666529455805 48.53832149613726 H 0.0 **** 0.06
15941 C 88.52508212558467 94.77772289826734 93.06536471376481 C 0.0 **** -0.24
15942 H 89.39897764040882 94.41662663110621 93.60831868695891 H 0.0 **** 0.06
15943 H 88.84996209697229 95.35590313339347 92.20033379871467 H 0.0 **** 0.06
15944 H 87.92627255811644 95.40956875768296 93.72058889413518 H 0.0 **** 0.06
15945 H 87.92804396461906 93.92874593296054 92.73287051301922 H 0.0 **** 0.06
15946 C 85.50692138108298 84.53515195365782 76.24675659540809 C 0.0 **** -0.24
15947 H 85.41210395196168 83.45496212869455 76.3571986857862 H 0.0 **** 0.06
15948 H 85.1157055965665 85.02684452873393 77.13793532602125 H 0.0 **** 0.06
15949 H 84.94136372815609 84.86182178201256 75.37412825233645 H 0.0 **** 0.06
15950 H 86.55692177847288 84.79550818326004 76.11831751593475 H 0.0 **** 0.06
15951 C 35.99364505905312 8.159026000929899 31.397777396821176 C 0.0 **** -0.24
15952 H 35.36704827891765 7.284387293291047 31.573719128112977 H 0.0 **** 0.06
15953 H 37.04258651576582 7.86863301429058 31.437846129728676 H 0.0 **** 0.06
15954 H 35.793309886429455 8.908115508445604 32.1647230661267 H 0.0 **** 0.06
15955 H 35.768205107135856 8.575494635759469 30.416219681297967 H 0.0 **** 0.06
15956 C 94.0342396914184 47.163095220287516 74.38525329062549 C 0.0 **** -0.24
15957 H 95.0578107596149 47.03349952191752 74.03373361196557 H 0.0 **** 0.06
15958 H 93.64068652006179 46.20251303627089 74.71967921487095 H 0.0 **** 0.06
15959 H 93.41668630408118 47.5446997836645 73.57177823525421 H 0.0 **** 0.06
15960 H 94.02147960454973 47.869611860107796 75.21452479473709 H 0.0 **** 0.06
15961 C 95.25494062939576 71.03540360376202 78.28756769733849 C 0.0 **** -0.24
15962 H 96.27064742784898 70.8840864131336 78.65339236123893 H 0.0 **** 0.06
15963 H 94.96705469643616 72.07617203136424 78.43321999865094 H 0.0 **** 0.06
15964 H 94.57133849607527 70.38845310384193 78.83811567870214 H 0.0 **** 0.06
15965 H 95.21081631098404 70.79160661391684 77.22610034724289 H 0.0 **** 0.06
15966 C 17.80551710885875 88.69296562411415 53.98615104012538 C 0.0 **** -0.24
15967 H 18.532041586347987 88.6046581143525 54.794460309601504 H 0.0 **** 0.06
15968 H 18.06872785525998 88.00257598137694 53.18443779012523 H 0.0 **** 0.06
15969 H 17.811037192288637 89.71368779900712 53.60316193115307 H 0.0 **** 0.06
15970 H 16.812266215915983 88.4519201582311 54.362392341027146 H 0.0 **** 0.06
15971 C 83.02073256544479 31.602561286404224 89.93830334447905 C 0.0 **** -0.24
15972 H 82.79661888525737 30.554729355185955 90.13737657485838 H 0.0 **** 0.06
15973 H 83.85846561322904 31.919470486593127 90.5593933192728 H 0.0 **** 0.06
15974 H 82.1457754290118 32.21129372337498 90.17104096584475 H 0.0 **** 0.06
15975 H 83.28011036782142 31.725649435165934 88.88656556810578 H 0.0 **** 0.06
15976 C 96.77095113876675 6.943087453108973 76.42306405641546 C 0.0 **** -0.24
15977 H 97.32423510404624 7.8697371701180145 76.2721270052441 H 0.0 **** 0.06
15978 H 97.35492163713644 6.104560054004395 76.04218326577649 H 0.0 **** 0.06
15979 H 95.82166561856235 6.99597405740559 75.89093172125956 H 0.0 **** 0.06
15980 H 96.58290167033499 6.801814807744364 77.48797549056155 H 0.0 **** 0.06
15981 C 28.0569546608277 92.4946111362171 23.298997688624638 C 0.0 **** -0.24
15982 H 28.75083798062724 91.67802671256868 23.498047107354775 H 0.0 **** 0.06
15983 H 27.38158049100562 92.20886203503021 22.491765931434916 H 0.0 **** 0.06
15984 H 28.616831987742103 93.3831463381695 23.008014160633405 H 0.0 **** 0.06
15985 H 27.48019850545333 92.70764259057694 24.199488021816762 H 0.0 **** 0.06
15986 C 27.69652649221227 74.29393125982159 41.87624152224994 C 0.0 **** -0.24
15987 H 26.792395259938857 74.18640503170957 41.27740209075595 H 0.0 **** 0.06
15988 H 28.46473832825768 74.79516671043706 41.28703571482587 H 0.0 **** 0.06
15989 H 28.053002032406923 73.30709574632232 42.174484391968655 H 0.0 **** 0.06
15990 H 27.476019778096784 74.88487945896668 42.76492417279756 H 0.0 **** 0.06
15991 C 53.992608241266396 69.65628446727567 84.15669063180762 C 0.0 **** -0.24
15992 H 53.300934236601414 70.44468499139973 84.45603595439341 H 0.0 **** 0.06
15993 H 54.35029992892655 69.85239361031776 83.14533323673162 H 0.0 **** 0.06
15994 H 53.47919314854435 68.69543580191385 84.18061997063272 H 0.0 **** 0.06
15995 H 54.83736271848843 69.63462701897194 84.84473834895667 H 0.0 **** 0.06
15996 C 15.615587597108629 64.7937037596526 70.99812907477246 C 0.0 **** -0.24
15997 H 16.36028774902158 65.36589687124744 71.55122995189583 H 0.0 **** 0.06
15998 H 15.305681288368334 63.93263071497468 71.59122115157248 H 0.0 **** 0.06
15999 H 16.04591381035786 64.45083808563263 70.0565227847556 H 0.0 **** 0.06
16000 H 14.750895322461218 65.4242295936128 70.79411621860879 H 0.0 **** 0.06
16001 C 80.6749172216 102.19024007422577 17.742013556017895 C 0.0 **** -0.24
16002 H 81.32982169641319 101.3873483749838 18.07989651140258 H 0.0 **** 0.06
16003 H 81.12864569159974 102.69221090404051 16.886560049814406 H 0.0 **** 0.06
16004 H 80.53208186316074 102.90666581563764 18.550726150213563 H 0.0 **** 0.06
16005 H 79.71093053320202 101.77358797884531 17.450235293548076 H 0.0 **** 0.06
16006 C 65.4234850506063 42.28219824895933 74.17672471172972 C 0.0 **** -0.24
16007 H 66.1142849198319 42.86104648574559 74.78828422005714 H 0.0 **** 0.06
16008 H 65.74508450655657 41.23999188134968 74.15298353017607 H 0.0 **** 0.06
16009 H 65.41231680709916 42.68160759877787 73.16266145003408 H 0.0 **** 0.06
16010 H 64.42174798035569 42.34385454900388 74.60227050154492 H 0.0 **** 0.06
16011 C 27.548377276688512 89.43530102805789 7.898091691613303 C 0.0 **** -0.24
16012 H 27.119354691862043 90.13470036216275 8.615852843582914 H 0.0 **** 0.06
16013 H 28.483572524936562 89.84108213305866 7.510927052918845 H 0.0 **** 0.06
16014 H 26.848973441677117 89.2844163021751 7.0759798236760645 H 0.0 **** 0.06
16015 H 27.74178737651701 88.48276425131134 8.390976124392424 H 0.0 **** 0.06
16016 C 59.70030699347561 66.59396281046378 32.779262987839275 C 0.0 **** -0.24
16017 H 59.95137434450385 66.20581409080296 33.76586147197048 H 0.0 **** 0.06
16018 H 59.39103234787058 67.63566831446315 32.86679993865789 H 0.0 **** 0.06
16019 H 58.88527726627245 66.00742055275464 32.354226954594594 H 0.0 **** 0.06
16020 H 60.572323059856785 66.52700366859722 32.129452038851355 H 0.0 **** 0.06
16021 C 19.722449830974142 87.61382569367848 93.79779642000665 C 0.0 **** -0.24
16022 H 18.978792115187503 88.250700751219 93.31733071404346 H 0.0 **** 0.06
16023 H 20.2011795555334 88.16433918482656 94.60845952857181 H 0.0 **** 0.06
16024 H 20.474167057210877 87.31763351499268 93.06567941901173 H 0.0 **** 0.06
16025 H 19.235219790028168 86.72574752890122 94.19942795284618 H 0.0 **** 0.06
16026 C 16.79963684448352 77.85431847847649 70.41402519428857 C 0.0 **** -0.24
16027 H 17.65423804480821 78.51760268655464 70.55185033579608 H 0.0 **** 0.06
16028 H 16.225312632952278 77.8063730238026 71.3392558690567 H 0.0 **** 0.06
16029 H 17.153285963929534 76.85691492481197 70.15191388466116 H 0.0 **** 0.06
16030 H 16.16795301408452 78.23837527104594 69.61301284486774 H 0.0 **** 0.06
16031 C 38.00341529122835 42.219175007691945 87.51185870328078 C 0.0 **** -0.24
16032 H 38.01922822081309 41.26730041728615 88.04275660492164 H 0.0 **** 0.06
16033 H 38.95966204850993 42.72482746512122 87.64611068828097 H 0.0 **** 0.06
16034 H 37.20220494379524 42.84260190524611 87.90856607607324 H 0.0 **** 0.06
16035 H 37.83291588288614 42.03868229377093 86.45026121751584 H 0.0 **** 0.06
16036 C 18.9277692319673 94.24594564667927 101.20524209764245 C 0.0 **** -0.24
16037 H 19.130303998780985 93.40355813568249 101.86705237182177 H 0.0 **** 0.06
16038 H 19.86754549265452 94.62376893698502 100.80120737442488 H 0.0 **** 0.06
16039 H 18.42949861566817 95.03669349694584 101.7663812158048 H 0.0 **** 0.06
16040 H 18.285577782033723 93.9190428457413 100.38735911767313 H 0.0 **** 0.06
16041 C 106.66138250212147 17.7572617817205 69.71850564223669 C 0.0 **** -0.24
16042 H 105.70350512470799 18.2207640392986 69.48244537521808 H 0.0 **** 0.06
16043 H 106.90701903433231 17.0211299843063 68.95241388218784 H 0.0 **** 0.06
16044 H 106.59753514472295 17.264498068938963 70.68795921708653 H 0.0 **** 0.06
16045 H 107.43676422330114 18.523022805565347 69.75003545104495 H 0.0 **** 0.06
16046 C 94.66781471485291 69.32486750509133 46.74013212530255 C 0.0 **** -0.24
16047 H 95.35907227635288 68.49715173425585 46.579752956077954 H 0.0 **** 0.06
16048 H 93.64365793514884 68.97008526273578 46.62200784725101 H 0.0 **** 0.06
16049 H 94.86625581142175 70.11064187784916 46.0108834328295 H 0.0 **** 0.06
16050 H 94.80152650354273 69.72062706135148 47.74716758664823 H 0.0 **** 0.06
16051 C 106.60643143760416 72.16533926691366 37.48185443908221 C 0.0 **** -0.24
16052 H 105.61180439595731 72.53473060784302 37.733618215090644 H 0.0 **** 0.06
16053 H 107.35400277087479 72.71609407916733 38.05161056062366 H 0.0 **** 0.06
16054 H 106.78580154847103 72.3035277100042 36.415005693046254 H 0.0 **** 0.06
16055 H 106.67167886582857 71.10449676985371 37.72585420599239 H 0.0 **** 0.06
16056 C 101.57694100068221 2.340306564484706 25.12786480124811 C 0.0 **** -0.24
16057 H 101.04778762968587 1.681906159280004 25.815806232693717 H 0.0 **** 0.06
16058 H 102.41544517871661 2.807648552687965 25.644517575298323 H 0.0 **** 0.06
16059 H 100.89640476918477 3.112050430962256 24.767480659115733 H 0.0 **** 0.06
16060 H 101.94923244175396 1.7602020303686459 24.282454982393915 H 0.0 **** 0.06
16061 C 69.8964819606737 74.17909688157249 52.62097653966322 C 0.0 **** -0.24
16062 H 70.4391298990883 74.47829765809757 53.517972079055625 H 0.0 **** 0.06
16063 H 70.10409454680905 74.88774113639391 51.818560033408545 H 0.0 **** 0.06
16064 H 68.82663052298912 74.16845233507757 52.82986040550995 H 0.0 **** 0.06
16065 H 70.21753000797008 73.18243773586241 52.318277748399225 H 0.0 **** 0.06
16066 C 44.9782237852043 81.15134232198093 88.99038023034359 C 0.0 **** -0.24
16067 H 44.170394783780075 80.46949213668701 88.72225235621642 H 0.0 **** 0.06
16068 H 45.72995389652456 81.1511404708907 88.20085335962784 H 0.0 **** 0.06
16069 H 45.43272335822258 80.82590357844224 89.92531528178768 H 0.0 **** 0.06
16070 H 44.57780853195923 82.15826625069082 89.11119714092337 H 0.0 **** 0.06
16071 C 8.83420105686281 54.395544599879656 31.46640487411497 C 0.0 **** -0.24
16072 H 8.055729218386034 54.84249669973062 32.08594289171555 H 0.0 **** 0.06
16073 H 9.57449163728927 53.91444062629827 32.10458715241849 H 0.0 **** 0.06
16074 H 9.315466106034478 55.173213869084236 30.872834866740718 H 0.0 **** 0.06
16075 H 8.388521356965839 53.65522763857257 30.802115585358905 H 0.0 **** 0.06
16076 C 106.71934434675738 37.96442349237367 49.390869362445486 C 0.0 **** -0.24
16077 H 106.54316118501816 38.954051771413845 49.813525573526555 H 0.0 **** 0.06
16078 H 107.50218999945083 37.46233890733589 49.959704696299006 H 0.0 **** 0.06
16079 H 107.03129683622706 38.063646950163616 48.35162003321964 H 0.0 **** 0.06
16080 H 105.80103668019989 37.37920155345819 49.44118024706165 H 0.0 **** 0.06
16081 C 90.8046703820368 58.86163841488121 55.700450618468345 C 0.0 **** -0.24
16082 H 90.88431069945429 57.79619509383184 55.486965812141484 H 0.0 **** 0.06
16083 H 91.54206019462566 59.13788353183469 56.45429859706872 H 0.0 **** 0.06
16084 H 89.80427652850312 59.08438723113625 56.071866798115536 H 0.0 **** 0.06
16085 H 90.98818771245539 59.42913032063814 54.78729659933069 H 0.0 **** 0.06
16086 C 37.16325610382802 7.254801558097043 27.997667546988254 C 0.0 **** -0.24
16087 H 37.27382988768397 7.271166064147025 26.91297470950701 H 0.0 **** 0.06
16088 H 36.178456903691426 6.865596940150837 28.25565621434569 H 0.0 **** 0.06
16089 H 37.26979109244627 8.266723566462446 28.38853966063678 H 0.0 **** 0.06
16090 H 37.932766331202174 6.6147731723533525 28.430370197655492 H 0.0 **** 0.06
16091 C 94.12527088856496 37.92513147378489 21.85819421951615 C 0.0 **** -0.24
16092 H 94.60765790559537 38.885969989739195 21.676529651168494 H 0.0 **** 0.06
16093 H 94.55632604968599 37.46448085367379 22.746271495181645 H 0.0 **** 0.06
16094 H 94.28049660460192 37.2733835540586 20.99782247459629 H 0.0 **** 0.06
16095 H 93.05670438805191 38.07843790573199 22.009163211507683 H 0.0 **** 0.06
16096 C 76.81709982467896 82.53089636558877 94.60440185393291 C 0.0 **** -0.24
16097 H 77.28961932088805 83.01633473997475 93.75020820085273 H 0.0 **** 0.06
16098 H 77.07107766970148 83.07248161123658 95.51550477381244 H 0.0 **** 0.06
16099 H 77.171934586053 81.50315944060205 94.67986015835312 H 0.0 **** 0.06
16100 H 75.73482222850464 82.53387086248591 94.46958609002083 H 0.0 **** 0.06
16101 C 4.967479532310861 44.75366474687226 20.346252464683374 C 0.0 **** -0.24
16102 H 4.092270178587299 45.19562974434581 20.82202170560103 H 0.0 **** 0.06
16103 H 5.0635780071161065 45.14029110580162 19.33112239438657 H 0.0 **** 0.06
16104 H 4.8546039368596325 43.67069947704903 20.312486832810947 H 0.0 **** 0.06
16105 H 5.859550060014584 45.00871931270456 20.918651123161197 H 0.0 **** 0.06
16106 C 17.127330134860614 97.82929643244603 2.2024988278328124 C 0.0 **** -0.24
16107 H 16.152839358717756 98.24912810359913 2.450921720867143 H 0.0 **** 0.06
16108 H 17.006046540293227 96.79540957043292 1.8797913857213473 H 0.0 **** 0.06
16109 H 17.77255220953346 97.86244938708245 3.080604879532018 H 0.0 **** 0.06
16110 H 17.57864310885219 98.41084294239553 1.3987568862734747 H 0.0 **** 0.06
16111 C 59.243882425332856 64.27399763191096 83.91795859850941 C 0.0 **** -0.24
16112 H 58.73683040087644 63.4014493159263 83.50543033301528 H 0.0 **** 0.06
16113 H 60.20390751761454 63.97101540875741 84.33614213350607 H 0.0 **** 0.06
16114 H 58.628198715893575 64.71528808923222 84.70169654124464 H 0.0 **** 0.06
16115 H 59.406456017393054 65.00639403768355 83.12730748174607 H 0.0 **** 0.06
16116 C 100.53330877640697 51.153836951584054 37.54792852608842 C 0.0 **** -0.24
16117 H 101.54824464232243 50.871180763427134 37.26608886222677 H 0.0 **** 0.06
16118 H 100.12480871000419 51.83016975928251 36.79750367356728 H 0.0 **** 0.06
16119 H 100.55079550155601 51.65257200952283 38.51670269645483 H 0.0 **** 0.06
16120 H 99.91212719149993 50.26086082653876 37.610337625543735 H 0.0 **** 0.06
16121 C 67.88676867574742 24.568047410975574 92.56598887426412 C 0.0 **** -0.24
16122 H 67.4602684127338 25.245740102749284 91.8259280375608 H 0.0 **** 0.06
16123 H 68.65982464543106 25.088185476021412 93.13169615580597 H 0.0 **** 0.06
16124 H 68.32229147463602 23.70720131076494 92.06008703012992 H 0.0 **** 0.06
16125 H 67.10168646042968 24.232480659124253 93.24484144859332 H 0.0 **** 0.06
16126 C 38.143189268076554 44.68895488465472 59.61380155892175 C 0.0 **** -0.24
16127 H 37.33551299743476 44.33304374272075 58.97446976149979 H 0.0 **** 0.06
16128 H 38.99164223831201 44.00925738520277 59.54050976687461 H 0.0 **** 0.06
16129 H 37.79714998450939 44.72891889277889 60.64702979855247 H 0.0 **** 0.06
16130 H 38.44575508822703 45.68582965478518 59.29366023810792 H 0.0 **** 0.06
16131 C 34.836406987809596 81.64206540038833 63.897017510849764 C 0.0 **** -0.24
16132 H 35.087676998499546 82.64070056315254 63.54002305090421 H 0.0 **** 0.06
16133 H 35.34199099156922 80.89859681745438 63.28102146357003 H 0.0 **** 0.06
16134 H 33.758046341127965 81.4950036090219 63.83244169411901 H 0.0 **** 0.06
16135 H 35.15683071549506 81.53499407511237 64.93371238760506 H 0.0 **** 0.06
16136 C 46.30527550208649 9.613289946000322 65.04909134731128 C 0.0 **** -0.24
16137 H 47.27252894779912 9.480579878045347 65.53478643882534 H 0.0 **** 0.06
16138 H 46.430223627408225 10.215254626317574 64.14917005100205 H 0.0 **** 0.06
16139 H 45.62322215216045 10.118709285929413 65.73326779658322 H 0.0 **** 0.06
16140 H 45.896199441967326 8.63962071300918 64.78175672051646 H 0.0 **** 0.06
16141 C 102.9389734717541 70.05769697692148 29.676213309212116 C 0.0 **** -0.24
16142 H 102.78945569665066 71.1352424498144 29.609760010737503 H 0.0 **** 0.06
16143 H 104.00347508781222 69.83384423816793 29.606513054205436 H 0.0 **** 0.06
16144 H 102.40941317110146 69.56641706465521 28.859562325528998 H 0.0 **** 0.06
16145 H 102.5535499314519 69.69528415504845 30.62901784637623 H 0.0 **** 0.06
16146 C 75.47341664242694 52.76792061079874 17.53355968664522 C 0.0 **** -0.24
16147 H 74.41842617987771 53.034687921013045 17.4833688565883 H 0.0 **** 0.06
16148 H 76.0741244255828 53.58123395520573 17.126275471794543 H 0.0 **** 0.06
16149 H 75.64640322829382 51.86198688276238 16.951558271318248 H 0.0 **** 0.06
16150 H 75.75517774563735 52.592234965553786 18.571481682788686 H 0.0 **** 0.06
16151 C 102.82605772766459 65.05724124662851 81.44986069898971 C 0.0 **** -0.24
16152 H 102.00201574509708 64.82390355649073 82.1239802640934 H 0.0 **** 0.06
16153 H 103.74440552629125 64.61077466932079 81.83180939068484 H 0.0 **** 0.06
16154 H 102.94637534884947 66.13827500089224 81.38457272647383 H 0.0 **** 0.06
16155 H 102.60976364747017 64.65471416039941 80.45980528409723 H 0.0 **** 0.06
16156 C 104.27793652183541 102.08420129523861 21.148367455443264 C 0.0 **** -0.24
16157 H 104.59593832778624 103.11140318101913 21.32831196817827 H 0.0 **** 0.06
16158 H 103.54738370592541 102.06745063213847 20.33827797437607 H 0.0 **** 0.06
16159 H 103.82556493654229 101.68142802441784 22.054023821730084 H 0.0 **** 0.06
16160 H 105.1416625916027 101.47921980972056 20.872310308505376 H 0.0 **** 0.06
16161 C 71.83577493724499 49.06105454340241 83.2767117581866 C 0.0 **** -0.24
16162 H 72.11972533068854 49.91818160490598 82.66742269721908 H 0.0 **** 0.06
16163 H 70.83316300586762 48.73381040625162 82.99970002508266 H 0.0 **** 0.06
16164 H 71.84856038932489 49.34277450139429 84.3300736666873 H 0.0 **** 0.06
16165 H 72.54270862225232 48.24728903410232 83.11010322077922 H 0.0 **** 0.06
16166 C 30.300222574914542 26.595504448433985 20.62862978105835 C 0.0 **** -0.24
16167 H 29.97580045476026 27.13592348854479 19.73980169110223 H 0.0 **** 0.06
16168 H 31.378701692369212 26.44279449878951 20.587309932032326 H 0.0 **** 0.06
16169 H 29.796366765973602 25.629741166638098 20.67009639287386 H 0.0 **** 0.06
16170 H 30.048703417008923 27.175175730725073 21.516505986600578 H 0.0 **** 0.06
16171 C 104.46536332870804 68.74068192122972 35.75327057925181 C 0.0 **** -0.24
16172 H 105.24847627996438 68.7048596500299 34.995331413293414 H 0.0 **** 0.06
16173 H 104.6701383878054 67.99643548903045 36.522054180333576 H 0.0 **** 0.06
16174 H 103.50186173491346 68.5281963096376 35.28834103257607 H 0.0 **** 0.06
16175 H 104.44070338719827 69.73190626244349 36.204015481536224 H 0.0 **** 0.06
16176 C 67.09179568774209 0.32589384841054425 33.906988960443385 C 0.0 **** -0.24
16177 H 66.25914582400924 -0.3729425429345383 33.820030221718525 H 0.0 **** 0.06
16178 H 67.87697862584139 0.04426777083045863 33.20513542486938 H 0.0 **** 0.06
16179 H 67.48500449165601 0.29858167164633187 34.92309315352557 H 0.0 **** 0.06
16180 H 66.74492398463349 1.333653694389568 33.67884652656966 H 0.0 **** 0.06
16181 C 54.63559096574252 9.551710270567 25.74962795196717 C 0.0 **** -0.24
16182 H 53.553300142986814 9.460169548534566 25.66918766075787 H 0.0 **** 0.06
16183 H 55.10888442613367 8.68512021054488 25.2854663993632 H 0.0 **** 0.06
16184 H 54.91963167269071 9.601762496977415 26.800459280717178 H 0.0 **** 0.06
16185 H 54.96165992543604 10.459435363564651 25.24149108896495 H 0.0 **** 0.06
16186 C 80.40430187840906 97.11813821089711 37.463819446266115 C 0.0 **** -0.24
16187 H 80.14101197117087 97.13517331120529 38.521305182718606 H 0.0 **** 0.06
16188 H 79.64920048695092 96.56069413093779 36.91036320885581 H 0.0 **** 0.06
16189 H 81.37517038187562 96.63849402436351 37.33978855118667 H 0.0 **** 0.06
16190 H 80.45294866967063 98.13960803768992 37.08599572207356 H 0.0 **** 0.06
16191 C 30.313236655017235 6.444990511782807 66.08090232298636 C 0.0 **** -0.24
16192 H 29.79202977732441 5.597015557683017 65.63812736313717 H 0.0 **** 0.06
16193 H 30.449351606961784 6.271792665217429 67.14841536246101 H 0.0 **** 0.06
16194 H 29.724142268662447 7.3506329526104075 65.93209876417673 H 0.0 **** 0.06
16195 H 31.28668452910722 6.562056971159089 65.60465916622415 H 0.0 **** 0.06
16196 C 45.83236340041071 39.69077471574485 51.50240520736005 C 0.0 **** -0.24
16197 H 44.96381353587378 39.06510938585109 51.2926983265589 H 0.0 **** 0.06
16198 H 46.52916663177285 39.635040364716986 50.66571002283525 H 0.0 **** 0.06
16199 H 46.3231090298101 39.33855376129276 52.409118467526035 H 0.0 **** 0.06
16200 H 45.511212651761014 40.72300170040546 51.63998967314595 H 0.0 **** 0.06
16201 C 4.365080589419577 86.29087023392299 106.84147940602494 C 0.0 **** -0.24
16202 H 4.486741009546066 87.06361656234373 107.60171411072044 H 0.0 **** 0.06
16203 H 4.075138074421616 86.75253585492857 105.89795302956463 H 0.0 **** 0.06
16204 H 3.5905664795135266 85.59137657431148 107.15670218149617 H 0.0 **** 0.06
16205 H 5.30719417119542 85.75782684600483 106.71271365575308 H 0.0 **** 0.06
16206 C 109.13629013590014 42.572130887475396 76.94145351079109 C 0.0 **** -0.24
16207 H 108.80231965736476 43.352762718120346 77.62586463660551 H 0.0 **** 0.06
16208 H 110.08130772371146 42.867446901191784 76.48662054523692 H 0.0 **** 0.06
16209 H 108.3865483368856 42.42832156274409 76.1629067766732 H 0.0 **** 0.06
16210 H 109.27175318821622 41.64098116740499 77.4911832610783 H 0.0 **** 0.06
16211 C 53.236466717672506 105.86546369114603 18.408660549270337 C 0.0 **** -0.24
16212 H 53.779358657668176 104.99835399760866 18.03149477409434 H 0.0 **** 0.06
16213 H 53.785476504104984 106.7735382969006 18.160433627686686 H 0.0 **** 0.06
16214 H 53.13407217849445 105.78663169527076 19.491132606676985 H 0.0 **** 0.06
16215 H 52.247602108525705 105.90097676553683 17.951795737053246 H 0.0 **** 0.06
16216 C 13.7151951747813 107.10033214615653 24.964007149314966 C 0.0 **** -0.24
16217 H 13.903100877842647 107.95413781303871 25.61419722970544 H 0.0 **** 0.06
16218 H 13.275220101261738 107.4457667765805 24.02848712599348 H 0.0 **** 0.06
16219 H 13.026689029544286 106.4141711004412 25.45671207778014 H 0.0 **** 0.06
16220 H 14.65357515417648 106.58724336665128 24.757056165320478 H 0.0 **** 0.06
16221 C 17.295308615996333 30.616315255163244 93.45599930032995 C 0.0 **** -0.24
16222 H 16.86290071367874 31.098142469369463 92.57851263077185 H 0.0 **** 0.06
16223 H 16.49953464614248 30.346067239728654 94.14998896375573 H 0.0 **** 0.06
16224 H 17.985932254044158 31.30317981604108 93.94429110125435 H 0.0 **** 0.06
16225 H 17.831469529704094 29.71892023751184 93.14948755092149 H 0.0 **** 0.06
16226 C 102.29254502635854 88.74317915079048 56.40975746598173 C 0.0 **** -0.24
16227 H 103.17110098069367 89.2558559630766 56.016238906651665 H 0.0 **** 0.06
16228 H 101.92999560592568 88.02611991338411 55.6722421084541 H 0.0 **** 0.06
16229 H 101.51162458762781 89.47259794895496 56.622076311991805 H 0.0 **** 0.06
16230 H 102.55871763779783 88.21811812501122 57.32637126407485 H 0.0 **** 0.06
16231 C 44.34001023484241 39.22826353593811 56.222115177652654 C 0.0 **** -0.24
16232 H 44.78075690616578 39.72972892386889 57.0841730282215 H 0.0 **** 0.06
16233 H 44.765228680537966 39.64170572108338 55.306725219948675 H 0.0 **** 0.06
16234 H 43.26068164934202 39.38320140701575 56.22410676967081 H 0.0 **** 0.06
16235 H 44.55446777773781 38.16121084351772 56.2735188184453 H 0.0 **** 0.06
16236 C 65.90574000817091 25.564733176768016 19.92296972719049 C 0.0 **** -0.24
16237 H 65.35908133571586 25.73957021520789 18.996470318446057 H 0.0 **** 0.06
16238 H 65.49059901364328 26.191844975510065 20.71272454381827 H 0.0 **** 0.06
16239 H 66.957013884401 25.81359519169149 19.77598731920503 H 0.0 **** 0.06
16240 H 65.81650517323824 24.51599978869831 20.20590483661192 H 0.0 **** 0.06
16241 C 95.17341017556714 15.192084888098972 63.39871857941972 C 0.0 **** -0.24
16242 H 95.47512778221227 15.213326351294008 62.35183982971603 H 0.0 **** 0.06
16243 H 95.93818342972486 15.675571933527046 64.00641751944087 H 0.0 **** 0.06
16244 H 95.05286297666521 14.157893025732232 63.720731641030596 H 0.0 **** 0.06
16245 H 94.22766551902751 15.721922864299106 63.514979731319045 H 0.0 **** 0.06
16246 C 85.18808309502427 18.14103056523024 77.41404214840948 C 0.0 **** -0.24
16247 H 84.87306993928041 17.51513894918554 76.57909408986386 H 0.0 **** 0.06
16248 H 84.76485170279378 17.751078298588027 78.34026854097063 H 0.0 **** 0.06
16249 H 84.83739617671819 19.161178311765553 77.25518635122715 H 0.0 **** 0.06
16250 H 86.27661516380508 18.137103297444327 77.48078372486789 H 0.0 **** 0.06
16251 C 34.463844987879426 101.5503220709512 88.39589561040417 C 0.0 **** -0.24
16252 H 33.87213922128739 101.59388259217974 89.31057733511483 H 0.0 **** 0.06
16253 H 35.28822954712481 100.84942022690826 88.530196045353 H 0.0 **** 0.06
16254 H 34.86079142877399 102.54098152189377 88.17382524355193 H 0.0 **** 0.06
16255 H 33.834258406312166 101.21778257446611 87.57130600106657 H 0.0 **** 0.06
16256 C 43.67338458941174 97.35965191981906 22.414000816041437 C 0.0 **** -0.24
16257 H 42.76083312191315 96.79289416833134 22.233127205087442 H 0.0 **** 0.06
16258 H 44.50641293000035 96.67104788368377 22.556791390881244 H 0.0 **** 0.06
16259 H 43.55037786061769 97.9717696065929 23.30691799969017 H 0.0 **** 0.06
16260 H 43.876402710410616 98.00254486136386 21.557012943390816 H 0.0 **** 0.06
16261 C 25.178423366720097 66.63677506944582 32.622746129272684 C 0.0 **** -0.24
16262 H 25.053907443574843 67.7195253318996 32.659181973584595 H 0.0 **** 0.06
16263 H 24.340313516997014 66.15777479640471 33.12980285669829 H 0.0 **** 0.06
16264 H 26.109653789683904 66.36283899679869 33.118407083238395 H 0.0 **** 0.06
16265 H 25.209418693894918 66.3097400585376 31.583249004352112 H 0.0 **** 0.06
16266 C 26.98347060529511 59.3941301708565 107.2677715848703 C 0.0 **** -0.24
16267 H 27.963844439134903 59.84929944987698 107.12571189308085 H 0.0 **** 0.06
16268 H 26.671910926714588 58.907551997025735 106.34328841557763 H 0.0 **** 0.06
16269 H 26.260993778128977 60.16437567827472 107.53447154829652 H 0.0 **** 0.06
16270 H 27.038690615256968 58.65454418711539 108.06749920145225 H 0.0 **** 0.06
16271 C 28.227949720766247 103.63557083685559 53.40832546315454 C 0.0 **** -0.24
16272 H 28.000438503123966 104.56698817973987 52.89005021489453 H 0.0 **** 0.06
16273 H 28.026577527328527 103.75419731030308 54.473083592615296 H 0.0 **** 0.06
16274 H 29.279826919274306 103.3864604364649 53.262026726631916 H 0.0 **** 0.06
16275 H 27.606842186354086 102.83466413540155 53.00694065881305 H 0.0 **** 0.06
16276 C 7.7819234315583685 97.24068553313444 16.000648462860738 C 0.0 **** -0.24
16277 H 8.54077751461719 96.46364773612893 15.907752743800472 H 0.0 **** 0.06
16278 H 7.235624224164397 97.3288844294172 15.060759603016379 H 0.0 **** 0.06
16279 H 8.262229715157517 98.19176455104727 16.23237778909879 H 0.0 **** 0.06
16280 H 7.089625165876271 96.97848636664116 16.800878171220006 H 0.0 **** 0.06
16281 C 9.538791620806364 5.154081660253141 103.69004249950821 C 0.0 **** -0.24
16282 H 9.154018573190228 6.084002218736643 103.27000038694928 H 0.0 **** 0.06
16283 H 8.712056314725942 4.46875038935805 103.87368232705441 H 0.0 **** 0.06
16284 H 10.052678329253354 5.364392333687363 104.62847245287809 H 0.0 **** 0.06
16285 H 10.23774230431195 4.700261938822322 102.98657712900106 H 0.0 **** 0.06
16286 C 35.66748458917942 14.485219560664461 61.80845006135502 C 0.0 **** -0.24
16287 H 36.196962923651995 15.299321766529559 62.3025534034972 H 0.0 **** 0.06
16288 H 35.21929982492463 14.851459254720908 60.88424455436095 H 0.0 **** 0.06
16289 H 34.8860722674749 14.10629102527821 62.46783602985775 H 0.0 **** 0.06
16290 H 36.36999157561064 13.683316652973602 61.57892755574184 H 0.0 **** 0.06
16291 C 82.83916128854919 90.71719480082449 96.11559514101174 C 0.0 **** -0.24
16292 H 82.51455262261017 90.17978508872015 97.00665455645654 H 0.0 **** 0.06
16293 H 83.9232288585824 90.64913304237925 96.02628696937538 H 0.0 **** 0.06
16294 H 82.54552925077716 91.7629199330496 96.19577582941622 H 0.0 **** 0.06
16295 H 82.37341488243757 90.27523761045495 95.2351095019485 H 0.0 **** 0.06
16296 C 89.57555092962065 44.736097642027005 104.50993368838922 C 0.0 **** -0.24
16297 H 89.30484370622804 44.331975308662834 103.53410704471857 H 0.0 **** 0.06
16298 H 89.54941928395766 45.82533710347329 104.47272594404949 H 0.0 **** 0.06
16299 H 90.5795624117568 44.40500957234414 104.7739913745644 H 0.0 **** 0.06
16300 H 88.86678287001246 44.38066858258264 105.2582069734321 H 0.0 **** 0.06
16301 C 26.630046294340616 33.85814274179896 50.79184489338546 C 0.0 **** -0.24
16302 H 26.7958881146715 32.78806993111061 50.920100804336016 H 0.0 **** 0.06
16303 H 25.572907927151107 34.04095112875939 50.59832888685423 H 0.0 **** 0.06
16304 H 27.22243974812403 34.22005033356302 49.95208796156318 H 0.0 **** 0.06
16305 H 26.92858224516374 34.38258178198282 51.70047073755614 H 0.0 **** 0.06
16306 C 20.02485032582804 50.947892253915825 77.10672908857956 C 0.0 **** -0.24
16307 H 20.954715585958553 50.38082429959195 77.05607901333921 H 0.0 **** 0.06
16308 H 19.338393715261915 50.58885705195405 76.33896741824348 H 0.0 **** 0.06
16309 H 20.23502089582962 52.00470032369981 76.94165363153317 H 0.0 **** 0.06
16310 H 19.57297396217828 50.81688884068251 78.09010985682907 H 0.0 **** 0.06
16311 C 42.31531619193129 85.85660484370885 37.253897328989325 C 0.0 **** -0.24
16312 H 43.18465335084247 85.56320462535928 36.66632092670403 H 0.0 **** 0.06
16313 H 41.68157321150707 84.98584955578528 37.42641979500942 H 0.0 **** 0.06
16314 H 41.75067051278688 86.61655656415064 36.71363766053224 H 0.0 **** 0.06
16315 H 42.6439246150988 86.26153185306086 38.21127996193968 H 0.0 **** 0.06
16316 C 36.815444036012394 64.33813850192976 75.68160597345728 C 0.0 **** -0.24
16317 H 36.50046785545052 64.05832847018007 74.67699851398423 H 0.0 **** 0.06
16318 H 37.89099408910883 64.1880452945374 75.7806263105502 H 0.0 **** 0.06
16319 H 36.29345531904731 63.718897184614875 76.41161204891561 H 0.0 **** 0.06
16320 H 36.57632719924899 65.38680271941992 75.85840631881554 H 0.0 **** 0.06
16321 C 69.19381302507341 43.640508472276835 27.529617542900553 C 0.0 **** -0.24
16322 H 69.70124657132365 42.739185935559874 27.186814817237632 H 0.0 **** 0.06
16323 H 69.64486359695299 44.513543279464926 27.057400965196308 H 0.0 **** 0.06
16324 H 69.28987220065332 43.72173195674057 28.612472684839815 H 0.0 **** 0.06
16325 H 68.13849645264686 43.58694633711755 27.261683026130385 H 0.0 **** 0.06
16326 C 28.410654209330247 23.274428320270573 24.077572438766936 C 0.0 **** -0.24
16327 H 29.239263367739937 23.94461309282144 24.306742908872707 H 0.0 **** 0.06
16328 H 27.907252327075014 22.990720118175062 25.001455565950494 H 0.0 **** 0.06
16329 H 28.79253781757083 22.381336104903653 23.582922998105573 H 0.0 **** 0.06
16330 H 27.704557958442507 23.781133099083632 23.419221281012426 H 0.0 **** 0.06
16331 C 71.12838269873413 39.93219050324632 91.15696506596298 C 0.0 **** -0.24
16332 H 70.22831510952494 40.481865638754726 91.43478427020884 H 0.0 **** 0.06
16333 H 70.84804224439011 39.03371159761278 90.60593982374411 H 0.0 **** 0.06
16334 H 71.67430482012884 39.65184246695301 92.0567176897652 H 0.0 **** 0.06
16335 H 71.75926902777951 40.561774327056895 90.52949274580612 H 0.0 **** 0.06
16336 C 58.824212124929375 100.08337199547469 80.77142650830349 C 0.0 **** -0.24
16337 H 59.85804900421829 100.37621025137011 80.58759250877017 H 0.0 **** 0.06
16338 H 58.676556541629395 99.91997566271363 81.83924407784546 H 0.0 **** 0.06
16339 H 58.606096230724916 99.16284688827142 80.22900978725404 H 0.0 **** 0.06
16340 H 58.155996275915584 100.87352509406904 80.42880495287659 H 0.0 **** 0.06
16341 C 101.20344144538602 101.38413474680073 85.59012009360657 C 0.0 **** -0.24
16342 H 100.23256716440794 101.82482813144298 85.81771921418394 H 0.0 **** 0.06
16343 H 101.96406892301988 102.16463138899684 85.58382099925961 H 0.0 **** 0.06
16344 H 101.1645433833329 100.90545028460394 84.61142708298348 H 0.0 **** 0.06
16345 H 101.45182129630649 100.64065989620502 86.34872773277695 H 0.0 **** 0.06
16346 C 17.883902802131686 101.374656674611 67.45885103369591 C 0.0 **** -0.24
16347 H 16.808019271901614 101.5513240400067 67.45925864344724 H 0.0 **** 0.06
16348 H 18.127213345483128 100.61293101935183 68.20036767338286 H 0.0 **** 0.06
16349 H 18.403689534004627 102.30037034570904 67.70415854698172 H 0.0 **** 0.06
16350 H 18.195330024548156 101.03389237407578 66.4719951248004 H 0.0 **** 0.06
16351 C 86.0473937764653 66.2618399387801 49.18958878334561 C 0.0 **** -0.24
16352 H 85.7477668747652 65.89850133485075 50.17355917693783 H 0.0 **** 0.06
16353 H 85.32253048672948 66.99572863332868 48.8366532618426 H 0.0 **** 0.06
16354 H 86.08919860905502 65.42585084037556 48.49191449644641 H 0.0 **** 0.06
16355 H 87.03121709177333 66.7266906801765 49.25959860493387 H 0.0 **** 0.06
16356 C 38.74285921825053 88.76952426730324 60.18096757177824 C 0.0 **** -0.24
16357 H 39.78903788540883 88.4633957950459 60.217126775539384 H 0.0 **** 0.06
16358 H 38.3032190201577 88.44760518765062 59.23727989358889 H 0.0 **** 0.06
16359 H 38.67973230844278 89.85491141639659 60.260154717147145 H 0.0 **** 0.06
16360 H 38.2023533403695 88.31271024667518 61.00983921295443 H 0.0 **** 0.06
16361 C 65.58731353205928 78.80809329312615 60.26650346212011 C 0.0 **** -0.24
16362 H 64.77304222122422 78.11913231035663 60.04074277430391 H 0.0 **** 0.06
16363 H 66.39749258201448 78.65846865787839 59.55232051975992 H 0.0 **** 0.06
16364 H 65.95342250324546 78.6195633893208 61.27548043693645 H 0.0 **** 0.06
16365 H 65.22464745169046 79.83289358839394 60.19598067433128 H 0.0 **** 0.06
16366 C 93.39097650311822 55.36807114207812 22.90029967827948 C 0.0 **** -0.24
16367 H 92.69078547807624 55.90311219385984 23.542358474694453 H 0.0 **** 0.06
16368 H 93.348916164612 54.302398810700936 23.12637332748625 H 0.0 **** 0.06
16369 H 94.4014035996815 55.738050241135 23.077718596909733 H 0.0 **** 0.06
16370 H 93.12289803366808 55.53002520905147 21.856563769684357 H 0.0 **** 0.06
16371 C 75.49286082118272 102.41595679646417 62.51142556879341 C 0.0 **** -0.24
16372 H 74.96625579242294 103.3621232063436 62.39137110169558 H 0.0 **** 0.06
16373 H 76.49792509466812 102.60541421188339 62.88918685507281 H 0.0 **** 0.06
16374 H 75.55494090680719 101.91057085963928 61.548176934055036 H 0.0 **** 0.06
16375 H 74.95153207070769 101.7862753302241 63.2172267291206 H 0.0 **** 0.06
16376 C 99.52801313767232 29.722035223697098 37.470507040481095 C 0.0 **** -0.24
16377 H 98.9278006572945 30.017831812631705 38.33086406688611 H 0.0 **** 0.06
16378 H 99.03925102142395 30.05574689566655 36.555002812322954 H 0.0 **** 0.06
16379 H 99.62907741603209 28.63672797811094 37.45434935666549 H 0.0 **** 0.06
16380 H 100.51551396713474 30.17873947985361 37.54169855928414 H 0.0 **** 0.06
16381 C 93.33976910885582 19.723134984724737 21.260974235385333 C 0.0 **** -0.24
16382 H 94.14148202980735 19.80626222916112 21.994540933552344 H 0.0 **** 0.06
16383 H 92.95978253418664 20.71703633289107 21.024887027356698 H 0.0 **** 0.06
16384 H 92.53473251779178 19.113256857091983 21.67227178489631 H 0.0 **** 0.06
16385 H 93.72358856096744 19.255122331414043 20.355025231286987 H 0.0 **** 0.06
16386 C 1.5218534897569187 84.44591452975988 10.91596015564671 C 0.0 **** -0.24
16387 H 1.6856018680488782 85.51099576264548 10.75242027648444 H 0.0 **** 0.06
16388 H 1.4610461553631504 84.24829706344806 11.986805025656384 H 0.0 **** 0.06
16389 H 2.3494384999361557 83.8808440060493 10.48806042706161 H 0.0 **** 0.06
16390 H 0.590507311549306 84.14376796882878 10.437071220781952 H 0.0 **** 0.06
16391 C 49.027829460960554 102.6474245456779 68.862256254297 C 0.0 **** -0.24
16392 H 48.65036178946472 102.54880042411554 67.84494988239248 H 0.0 **** 0.06
16393 H 48.94855485972129 103.68749742904288 69.18033934601101 H 0.0 **** 0.06
16394 H 50.07235010019374 102.33627976432024 68.89372780292092 H 0.0 **** 0.06
16395 H 48.4400510944622 102.01712056523297 69.53000798586362 H 0.0 **** 0.06
16396 C 6.261283789488573 72.46445172725159 30.035499390122233 C 0.0 **** -0.24
16397 H 7.085763456676943 72.3075415673088 30.73061759401736 H 0.0 **** 0.06
16398 H 6.5971555380140785 72.24905171450794 29.020346225492865 H 0.0 **** 0.06
16399 H 5.927737296538282 73.50023314866905 30.095302618550008 H 0.0 **** 0.06
16400 H 5.436473044280092 71.80044058887424 30.294415040240068 H 0.0 **** 0.06
16401 C 40.47639920584419 69.1739737871361 96.31518295879948 C 0.0 **** -0.24
16402 H 41.39399205348627 68.8467669796986 96.80516763729183 H 0.0 **** 0.06
16403 H 40.162578662570326 68.4203099311635 95.59242963993955 H 0.0 **** 0.06
16404 H 40.65622064306248 70.11818926912701 95.80097556211946 H 0.0 **** 0.06
16405 H 39.69459542202233 69.31006914806164 97.06285387022463 H 0.0 **** 0.06
16406 C 30.342624608417623 87.26883153793088 80.76962671031976 C 0.0 **** -0.24
16407 H 30.532240503691753 87.89376269751206 81.64237852249465 H 0.0 **** 0.06
16408 H 31.025036850283527 87.5485210241769 79.96776130563524 H 0.0 **** 0.06
16409 H 29.31406972667088 87.41042679803462 80.43821686400423 H 0.0 **** 0.06
16410 H 30.49876682068009 86.22179817902568 81.03162800372155 H 0.0 **** 0.06
16411 C 78.20834476426506 5.346224844596955 72.24639340265962 C 0.0 **** -0.24
16412 H 79.22123868527069 5.7479741167181295 72.26555773702056 H 0.0 **** 0.06
16413 H 78.23350707105595 4.2849157621773735 72.49366401498037 H 0.0 **** 0.06
16414 H 77.7843471077797 5.478387499643068 71.25052296547939 H 0.0 **** 0.06
16415 H 77.59398225213073 5.874488935178013 72.97622397879242 H 0.0 **** 0.06
16416 C 26.40566950959383 49.71744670370481 107.64952590328235 C 0.0 **** -0.24
16417 H 25.457854574302974 50.16691552042869 107.35346933653088 H 0.0 **** 0.06
16418 H 26.895157954804027 50.35534075423587 108.38676548518742 H 0.0 **** 0.06
16419 H 27.047527710065342 49.61374616722463 106.774756159072 H 0.0 **** 0.06
16420 H 26.221069466231285 48.73467895255561 108.08335448156443 H 0.0 **** 0.06
16421 C 107.55861803705503 51.42630966582597 2.1252544471448402 C 0.0 **** -0.24
16422 H 108.53558831039916 51.849712545765435 1.8907998040135112 H 0.0 **** 0.06
16423 H 107.66011310943406 50.71040431179205 2.9412496467579246 H 0.0 **** 0.06
16424 H 107.16124885209072 50.920376741556204 1.2454138566214965 H 0.0 **** 0.06
16425 H 106.87887212050697 52.2244953516616 2.4238929827627373 H 0.0 **** 0.06
16426 C 64.22072368788754 63.66147999410515 42.15145163258846 C 0.0 **** -0.24
16427 H 63.29318988615064 64.15318641571145 41.85761371572832 H 0.0 **** 0.06
16428 H 64.82772879304314 64.35162677064324 42.73876004482054 H 0.0 **** 0.06
16429 H 64.7703508985755 63.361547618218424 41.258786296612584 H 0.0 **** 0.06
16430 H 63.98984346728298 62.77955205807132 42.74973780959425 H 0.0 **** 0.06
16431 C 35.738269310385704 48.30231860863383 43.16366154833757 C 0.0 **** -0.24
16432 H 35.85677560462518 49.15019536422894 42.490206985295714 H 0.0 **** 0.06
16433 H 36.60488767155626 48.235848191967854 43.821435189938484 H 0.0 **** 0.06
16434 H 35.65291180881049 47.38462750625248 42.58052085356347 H 0.0 **** 0.06
16435 H 34.83670266031333 48.4373623518348 43.76137773282491 H 0.0 **** 0.06
16436 C 60.64617361676095 107.5276325891469 62.96020675500739 C 0.0 **** -0.24
16437 H 61.098367358662244 107.43374375868582 61.97312137505628 H 0.0 **** 0.06
16438 H 60.93072693393094 108.48249457870746 63.400738013116154 H 0.0 **** 0.06
16439 H 60.99366926211887 106.71425502505636 63.59703920360505 H 0.0 **** 0.06
16440 H 59.56119462009046 107.47838416649714 62.86827726750795 H 0.0 **** 0.06
16441 C 105.95496060840964 64.05573049491659 84.22542336217677 C 0.0 **** -0.24
16442 H 107.02995269232571 64.21434733517987 84.14195742559711 H 0.0 **** 0.06
16443 H 105.72647945691313 63.625013103192146 85.20024167844207 H 0.0 **** 0.06
16444 H 105.62596600875136 63.375623683245294 83.44027235825948 H 0.0 **** 0.06
16445 H 105.43792484050189 65.00986659722827 84.12024632538181 H 0.0 **** 0.06
16446 C 26.338411785322364 102.94918429018463 92.8632801285935 C 0.0 **** -0.24
16447 H 25.78795208137319 102.88247891050516 93.80171998872868 H 0.0 **** 0.06
16448 H 27.408959017372695 102.91055201406432 93.0667428452076 H 0.0 **** 0.06
16449 H 26.096354904949635 103.88897420285589 92.36639253633786 H 0.0 **** 0.06
16450 H 26.060037943436214 102.11474964283872 92.2192042698752 H 0.0 **** 0.06
16451 C 106.6555137073388 30.581950610655383 76.73291251563109 C 0.0 **** -0.24
16452 H 107.01527354114893 30.206292856721404 77.69128354123617 H 0.0 **** 0.06
16453 H 106.18753224119615 29.768595268869205 76.17785727037041 H 0.0 **** 0.06
16454 H 107.49307496004076 30.978695668701448 76.15996197247503 H 0.0 **** 0.06
16455 H 105.92557663993165 31.373000307654024 76.90432462218226 H 0.0 **** 0.06
16456 C 7.99305814694921 22.327784737703496 13.19521255414476 C 0.0 **** -0.24
16457 H 7.586028047731418 22.64819359788754 12.236692614809982 H 0.0 **** 0.06
16458 H 8.306710816097052 21.28570416071466 13.126046184795968 H 0.0 **** 0.06
16459 H 7.229607809792526 22.427640921490337 13.966689179648625 H 0.0 **** 0.06
16460 H 8.851553960989577 22.949646600822234 13.4509578861758 H 0.0 **** 0.06
16461 C 57.27629411379468 89.06530198322305 62.16850482854518 C 0.0 **** -0.24
16462 H 58.178021512395446 89.31707868667259 61.60972393667133 H 0.0 **** 0.06
16463 H 57.16774475637891 89.75014324666815 63.00956210807938 H 0.0 **** 0.06
16464 H 57.35352195325885 88.04311600802835 62.53975485699792 H 0.0 **** 0.06
16465 H 56.40832297432274 89.15112457216534 61.51506513829604 H 0.0 **** 0.06
16466 C 106.13332656552492 38.03094762320852 38.15246567203435 C 0.0 **** -0.24
16467 H 105.61718212677606 37.526594763763484 37.335164621429435 H 0.0 **** 0.06
16468 H 107.08152850035455 38.4309096012708 37.79179626444824 H 0.0 **** 0.06
16469 H 106.32097106508598 37.32014684405593 38.95723934070568 H 0.0 **** 0.06
16470 H 105.51288336722371 38.84555044969207 38.52534006021371 H 0.0 **** 0.06
16471 C 70.60715394274428 49.23539606271959 74.06942861930267 C 0.0 **** -0.24
16472 H 71.21747671887607 50.137688973384854 74.04159984165543 H 0.0 **** 0.06
16473 H 70.72325469824312 48.689362813714524 73.13362087596761 H 0.0 **** 0.06
16474 H 69.5609012686528 49.50896244445579 74.20291494969717 H 0.0 **** 0.06
16475 H 70.92723770653976 48.60652144952405 74.89975200947197 H 0.0 **** 0.06
16476 C 72.85552948533405 79.42948669479813 66.72740177082488 C 0.0 **** -0.24
16477 H 72.28783668784556 79.57715233465677 65.80852004517227 H 0.0 **** 0.06
16478 H 73.79531881249525 79.97939675813166 66.66516934941852 H 0.0 **** 0.06
16479 H 73.06352091417648 78.36754954971605 66.85914751049113 H 0.0 **** 0.06
16480 H 72.27555691639355 79.79399662852353 67.57477898922446 H 0.0 **** 0.06
16481 C 56.13197975702499 3.774878238220694 16.80325640016696 C 0.0 **** -0.24
16482 H 55.425639063746786 4.171383997596237 17.530865323015576 H 0.0 **** 0.06
16483 H 56.243929158373504 4.482963982519593 15.981461516281627 H 0.0 **** 0.06
16484 H 55.76079401435783 2.825655188332732 16.41696815890458 H 0.0 **** 0.06
16485 H 57.09846601797281 3.6189529016664608 17.28280146947384 H 0.0 **** 0.06
16486 C 26.502972288275117 56.159715014547025 100.97882812150709 C 0.0 **** -0.24
16487 H 27.324856094627705 56.85734162405883 101.14069534944436 H 0.0 **** 0.06
16488 H 26.074837116023673 56.32668253060116 99.99075780295537 H 0.0 **** 0.06
16489 H 25.738064211968748 56.31751631955776 101.73829976738031 H 0.0 **** 0.06
16490 H 26.87630052534186 55.137167996751614 101.04503650038836 H 0.0 **** 0.06
16491 C 107.51240133445833 87.46703037246363 17.913269319608332 C 0.0 **** -0.24
16492 H 106.50489290755132 87.51943086921966 18.325310332044737 H 0.0 **** 0.06
16493 H 108.20823640195619 87.96246942572023 18.590703884373397 H 0.0 **** 0.06
16494 H 107.53403017089806 87.96347176830278 16.942416567973396 H 0.0 **** 0.06
16495 H 107.80161092206123 86.42284625522501 17.794104685311922 H 0.0 **** 0.06
16496 C 22.703984988310708 90.33920191896306 78.6649063929737 C 0.0 **** -0.24
16497 H 22.963726817000804 89.47486348491903 78.053904669844 H 0.0 **** 0.06
16498 H 22.044324481353044 90.02680294103239 79.47454999708114 H 0.0 **** 0.06
16499 H 22.19713824130497 91.08055370883422 78.04760279250685 H 0.0 **** 0.06
16500 H 23.611805020856366 90.7740485183808 79.08279522363627 H 0.0 **** 0.06
16501 C 55.696414989864344 2.938714978229214 37.364063734919455 C 0.0 **** -0.24
16502 H 55.48107666894973 1.870530218401285 37.39241147247918 H 0.0 **** 0.06
16503 H 55.03038961360555 3.4622588845840028 38.0501219340386 H 0.0 **** 0.06
16504 H 55.54315034990272 3.3133056443859488 36.35159068031595 H 0.0 **** 0.06
16505 H 56.73155267880782 3.108375320353815 37.66087042412579 H 0.0 **** 0.06
16506 C 54.100998119267615 53.54755483705503 50.06123601717243 C 0.0 **** -0.24
16507 H 54.939456580984995 53.35828947076692 49.390274812607146 H 0.0 **** 0.06
16508 H 53.44249777141101 54.29427112355057 49.61665421338199 H 0.0 **** 0.06
16509 H 54.477035729349836 53.91685783964476 51.01531980256533 H 0.0 **** 0.06
16510 H 53.54692644554757 52.622926256748656 50.22181127409854 H 0.0 **** 0.06
16511 C 40.98154985820801 6.006454371720224 31.39688223405267 C 0.0 **** -0.24
16512 H 40.22646867668403 5.494775941093167 31.99357432498624 H 0.0 **** 0.06
16513 H 41.81340966896972 5.329283135935384 31.204577247709352 H 0.0 **** 0.06
16514 H 41.34159211089977 6.881008118630291 31.938957131222537 H 0.0 **** 0.06
16515 H 40.54227475105312 6.3224110340512425 30.449952089458066 H 0.0 **** 0.06
16516 C 33.93774283792113 91.97447820388368 25.05015433916286 C 0.0 **** -0.24
16517 H 33.89959535928457 93.06308245728366 25.103384728854195 H 0.0 **** 0.06
16518 H 33.022898041910366 91.55819240901201 25.471339543332903 H 0.0 **** 0.06
16519 H 34.79628253873649 91.61411987800238 25.617032925987758 H 0.0 **** 0.06
16520 H 34.034017867884515 91.66505709206723 24.009342364175723 H 0.0 **** 0.06
16521 C 54.43812905075575 51.99024790575902 62.97986247566723 C 0.0 **** -0.24
16522 H 55.41878853370969 51.596450165169955 62.71274792684994 H 0.0 **** 0.06
16523 H 54.53938356931212 52.679453330363515 63.818249182858665 H 0.0 **** 0.06
16524 H 53.78140104447678 51.166701423436706 63.26338049935424 H 0.0 **** 0.06
16525 H 54.013629527773276 52.516316913607454 62.125567239099524 H 0.0 **** 0.06
16526 C 71.21944279347156 18.17099266954625 92.86604026665498 C 0.0 **** -0.24
16527 H 71.29730386474547 17.9953725725278 91.7937310614746 H 0.0 **** 0.06
16528 H 72.20031850925925 18.42990047765352 93.26363100739741 H 0.0 **** 0.06
16529 H 70.85441573987903 17.26818053605706 93.35644560945536 H 0.0 **** 0.06
16530 H 70.52465814574538 18.99045901274536 93.0494361722665 H 0.0 **** 0.06
16531 C 84.6943079293774 41.184915659249896 55.24785919648875 C 0.0 **** -0.24
16532 H 85.23114682139106 41.76513656636797 55.99728263240195 H 0.0 **** 0.06
16533 H 83.82095188847858 40.71973920193102 55.70695618216956 H 0.0 **** 0.06
16534 H 85.35059619905726 40.41069692484734 54.848876763504734 H 0.0 **** 0.06
16535 H 84.37323371864409 41.8410801695199 54.43943647001578 H 0.0 **** 0.06
16536 C 33.31834692728023 67.87288966198751 19.268084232089265 C 0.0 **** -0.24
16537 H 32.78367287766201 67.38345112411805 18.45501943621614 H 0.0 **** 0.06
16538 H 32.600353857141045 68.25977673542208 19.992894088522096 H 0.0 **** 0.06
16539 H 33.91129327177586 68.69657487784276 18.869304582543503 H 0.0 **** 0.06
16540 H 33.97608299727432 67.15488433973069 19.75564281498451 H 0.0 **** 0.06
16541 C 78.90566928386369 36.132594486183535 5.01393267281116 C 0.0 **** -0.24
16542 H 77.90381062294358 36.29459212763126 4.6153992548393905 H 0.0 **** 0.06
16543 H 79.3472308075072 35.25580171376242 4.54052195643845 H 0.0 **** 0.06
16544 H 78.84733926739727 35.97351409255168 6.0903930157054464 H 0.0 **** 0.06
16545 H 79.52355661302619 37.00686701589038 4.8082784196084685 H 0.0 **** 0.06
16546 C 18.01634491430883 97.47808658197346 39.12224253958236 C 0.0 **** -0.24
16547 H 17.614230916823857 97.34210988382222 40.12603859383199 H 0.0 **** 0.06
16548 H 18.876559970324934 96.8230171470114 38.9829659262971 H 0.0 **** 0.06
16549 H 18.324193553090083 98.51603253294799 38.99268050521607 H 0.0 **** 0.06
16550 H 17.249088904082925 97.23293083696704 38.38778713316577 H 0.0 **** 0.06
16551 C 82.84551816893811 17.875566733138154 88.22193736696505 C 0.0 **** -0.24
16552 H 82.6452621970016 17.557186884762753 89.24508872004515 H 0.0 **** 0.06
16553 H 83.75052468815399 17.387410027980895 87.86128509662191 H 0.0 **** 0.06
16554 H 82.97950437789159 18.95655775171827 88.19773145398781 H 0.0 **** 0.06
16555 H 82.00378766525648 17.599325507596305 87.58606201750192 H 0.0 **** 0.06
16556 C 106.83251553787979 74.70878371496556 95.008169742625 C 0.0 **** -0.24
16557 H 105.89274484252861 74.9910092797405 95.48207964947494 H 0.0 **** 0.06
16558 H 107.59739239941848 74.56979560048174 95.77235137366105 H 0.0 **** 0.06
16559 H 107.14363710697666 75.49619311573946 94.3209341805998 H 0.0 **** 0.06
16560 H 106.69559806321371 73.7784153240351 94.45664535889063 H 0.0 **** 0.06
16561 C 0.6372152229659349 63.73922574635593 7.846900835742247 C 0.0 **** -0.24
16562 H 1.423746098179052 63.411645703777154 8.526959198713072 H 0.0 **** 0.06
16563 H 0.9927551215533441 63.666121374596585 6.818512263371716 H 0.0 **** 0.06
16564 H 0.3736514370126116 64.77277343115824 8.067930471609145 H 0.0 **** 0.06
16565 H -0.2393806784735375 63.1054154238855 7.974873040849289 H 0.0 **** 0.06
16566 C 51.61637082835671 31.508417301126855 14.004171701390817 C 0.0 **** -0.24
16567 H 51.99778340392976 32.404087372596 13.515042499243464 H 0.0 **** 0.06
16568 H 51.78735743495531 31.5795091575041 15.078472593613412 H 0.0 **** 0.06
16569 H 52.13223768171997 30.63258617069478 13.611216157290073 H 0.0 **** 0.06
16570 H 50.54694930946863 31.41701385502644 13.81129105520381 H 0.0 **** 0.06
16571 C 98.64377512352394 55.817011801739255 47.138577061291244 C 0.0 **** -0.24
16572 H 97.75119124063437 55.59492258849215 47.72395239899805 H 0.0 **** 0.06
16573 H 98.88791281048682 56.874634540615745 47.23701883760759 H 0.0 **** 0.06
16574 H 98.45763829671853 55.58228589750502 46.090534267975585 H 0.0 **** 0.06
16575 H 99.47595493701665 55.21551078138867 47.50412341450746 H 0.0 **** 0.06
16576 C 52.642302867497904 26.683688611720044 85.27757667428827 C 0.0 **** -0.24
16577 H 53.277382325010024 27.48633513542532 84.90459888208892 H 0.0 **** 0.06
16578 H 51.88212377867484 27.098991809812702 85.93915272161837 H 0.0 **** 0.06
16579 H 53.25021340327726 25.965223896737285 85.82697368142152 H 0.0 **** 0.06
16580 H 52.15814801926274 26.183599511032412 84.43789940920675 H 0.0 **** 0.06
16581 C 64.45976992761302 109.17165642102785 81.45921782975334 C 0.0 **** -0.24
16582 H 63.88889276536948 110.09991928575084 81.45882198310736 H 0.0 **** 0.06
16583 H 64.39354552818065 108.70489904495443 82.44209969150396 H 0.0 **** 0.06
16584 H 65.50369279792015 109.38744880253313 81.22914260205354 H 0.0 **** 0.06
16585 H 64.05432665869826 108.49536320021716 80.70650399965507 H 0.0 **** 0.06
16586 C 101.69280702744187 94.80044057053611 34.588857150439225 C 0.0 **** -0.24
16587 H 101.1896370545672 94.15901824271512 33.8649916498448 H 0.0 **** 0.06
16588 H 102.63554275870717 94.34262677060313 34.886878428644195 H 0.0 **** 0.06
16589 H 101.05651606285225 94.92837408842637 35.4648592691579 H 0.0 **** 0.06
16590 H 101.88774963100859 95.77365292551552 34.13602046798604 H 0.0 **** 0.06
16591 C 38.88012126549495 109.57295340675708 10.416015199324306 C 0.0 **** -0.24
16592 H 39.54687499438086 109.37201202753911 9.578441435721743 H 0.0 **** 0.06
16593 H 38.02854799744017 110.15836497528132 10.070910762478547 H 0.0 **** 0.06
16594 H 39.4184057443222 110.13073790301911 11.18280472419292 H 0.0 **** 0.06
16595 H 38.52731720061499 108.62942073707015 10.833886372923814 H 0.0 **** 0.06
16596 C 6.832949219651368 19.72741777419687 24.976305268301942 C 0.0 **** -0.24
16597 H 5.7583993687831025 19.79181131950703 25.145875093647 H 0.0 **** 0.06
16598 H 7.026203527596465 19.104954647916728 24.103133321132237 H 0.0 **** 0.06
16599 H 7.312440595234477 19.286757048612852 25.850060371991038 H 0.0 **** 0.06
16600 H 7.2342130298604275 20.72617654264523 24.80745892456024 H 0.0 **** 0.06
16601 C 81.88681432753827 36.13497449993483 89.22316272974439 C 0.0 **** -0.24
16602 H 81.04342299221241 35.450929450966214 89.30833437680616 H 0.0 **** 0.06
16603 H 81.62495779603842 37.092116421425104 89.67498061159104 H 0.0 **** 0.06
16604 H 82.12983628280688 36.28424570719589 88.17093684144874 H 0.0 **** 0.06
16605 H 82.74969166604217 35.71338755881723 89.7393817205027 H 0.0 **** 0.06
16606 C 102.47217893470918 96.15368380441815 52.69602875962869 C 0.0 **** -0.24
16607 H 101.90584966408221 97.08563214077627 52.696642042445575 H 0.0 **** 0.06
16608 H 103.53575473242671 96.37546653030654 52.79135911175311 H 0.0 **** 0.06
16609 H 102.29388948011055 95.62185292672461 51.76135894734335 H 0.0 **** 0.06
16610 H 102.15324564345374 95.5341664720006 53.53293233002876 H 0.0 **** 0.06
16611 C 41.752289743416725 45.9958181511175 52.16295525209841 C 0.0 **** -0.24
16612 H 42.47529637257702 46.237364071443224 52.94231451764301 H 0.0 **** 0.06
16613 H 41.119194439751084 45.17393302397228 52.49798369820445 H 0.0 **** 0.06
16614 H 42.280490106630964 45.70178695855852 51.25588198943268 H 0.0 **** 0.06
16615 H 41.13495809548027 46.870090278281154 51.95718418498598 H 0.0 **** 0.06
16616 C 9.824128933493327 103.35548892996815 27.46783803658822 C 0.0 **** -0.24
16617 H 10.66159577144748 102.82037334109924 27.021644804824163 H 0.0 **** 0.06
16618 H 9.63710543159371 104.2720093598362 26.906243443184522 H 0.0 **** 0.06
16619 H 10.0617657199641 103.60565848668142 28.502613808860445 H 0.0 **** 0.06
16620 H 8.935588399533131 102.72513388954127 27.44199085140501 H 0.0 **** 0.06
16621 C 55.53669406892911 50.84524695043257 41.224385483256015 C 0.0 **** -0.24
16622 H 55.770059845772636 50.89529275490736 42.28743470235872 H 0.0 **** 0.06
16623 H 56.46062747217002 50.887172077630225 40.64724924894392 H 0.0 **** 0.06
16624 H 54.89900756470308 51.68677460218248 40.951519115250335 H 0.0 **** 0.06
16625 H 55.01632146319267 49.911190719081844 41.01028452570009 H 0.0 **** 0.06
16626 C 92.0263480491854 1.721479018388905 40.55974983701617 C 0.0 **** -0.24
16627 H 92.6086068924547 1.9538042056931033 41.45100259124874 H 0.0 **** 0.06
16628 H 92.49228029054007 0.8909844051676288 40.02802643277123 H 0.0 **** 0.06
16629 H 91.99283155012802 2.5962469494335494 39.90995556354075 H 0.0 **** 0.06
16630 H 91.01291508816075 1.4452322584915436 40.84943619081679 H 0.0 **** 0.06
16631 C 108.13881019594437 19.881210288223116 28.79080468775424 C 0.0 **** -0.24
16632 H 109.03852565540018 20.307605415737214 28.347010638584614 H 0.0 **** 0.06
16633 H 108.23782678084116 19.87217728856001 29.875787145284413 H 0.0 **** 0.06
16634 H 108.0044120190976 18.86093963881862 28.428974774409376 H 0.0 **** 0.06
16635 H 107.27407881557102 20.482271749013904 28.509115785912094 H 0.0 **** 0.06
16636 C 85.62017535397628 45.66361693331402 36.396026514519605 C 0.0 **** -0.24
16637 H 84.6616388726793 46.14677318206225 36.587075586314626 H 0.0 **** 0.06
16638 H 86.09002384118415 46.12097958585292 35.524400594688785 H 0.0 **** 0.06
16639 H 85.46031821574707 44.60264537665705 36.20839700914732 H 0.0 **** 0.06
16640 H 86.26842916436055 45.786243947634546 37.263799806251 H 0.0 **** 0.06
16641 C 25.645239594489 29.759779929643457 69.22007727044047 C 0.0 **** -0.24
16642 H 26.637337216742253 29.30634697784444 69.22741342549824 H 0.0 **** 0.06
16643 H 25.717813490265314 30.784994675962025 68.85737545609283 H 0.0 **** 0.06
16644 H 25.238702367132987 29.758601749433296 70.23161569130838 H 0.0 **** 0.06
16645 H 24.989513685952204 29.187099021684958 68.56484530192773 H 0.0 **** 0.06
16646 C 91.93159327139264 11.654716760335788 1.0674666406274582 C 0.0 **** -0.24
16647 H 92.43474129441745 11.390688285676475 1.9975165763320888 H 0.0 **** 0.06
16648 H 91.89812221918227 12.739474122722598 0.9672817888636303 H 0.0 **** 0.06
16649 H 90.91495915506272 11.259038405779592 1.0803772608711029 H 0.0 **** 0.06
16650 H 92.47679936199064 11.227439150192879 0.22567804371064426 H 0.0 **** 0.06
16651 C 31.804304890850005 55.083574481905195 103.95915766850018 C 0.0 **** -0.24
16652 H 30.985662919332867 55.407651124121635 104.60057207585693 H 0.0 **** 0.06
16653 H 32.7530664843124 55.399124781791905 104.39433965337196 H 0.0 **** 0.06
16654 H 31.69119375756361 55.53015450214883 102.97205435780968 H 0.0 **** 0.06
16655 H 31.78837545969907 53.99706144848289 103.87052601280577 H 0.0 **** 0.06
16656 C 87.67534650722853 41.54778075026346 103.3271741197625 C 0.0 **** -0.24
16657 H 87.88898148160877 41.04764460598131 104.27208777971214 H 0.0 **** 0.06
16658 H 86.87657131585888 42.27450707031517 103.47358412033827 H 0.0 **** 0.06
16659 H 87.36563362569704 40.809004272584225 102.58858826372489 H 0.0 **** 0.06
16660 H 88.57205292099488 42.05879967820831 102.97692689866767 H 0.0 **** 0.06
16661 C 3.6548730409536034 52.87693556422147 9.430589391329164 C 0.0 **** -0.24
16662 H 4.649185086593107 52.882845303311456 9.877983547962259 H 0.0 **** 0.06
16663 H 3.00833563646907 53.56562382905312 9.97467645534607 H 0.0 **** 0.06
16664 H 3.2399795607059048 51.869748616723314 9.482452413954604 H 0.0 **** 0.06
16665 H 3.7243155984376983 53.187895450052395 8.388640497172617 H 0.0 **** 0.06
16666 C 69.54542584304846 55.63090390122452 70.45218167166342 C 0.0 **** -0.24
16667 H 69.12116070044559 56.52347256777597 70.9104305742373 H 0.0 **** 0.06
16668 H 69.43110758251245 54.78500731952999 71.13109642528462 H 0.0 **** 0.06
16669 H 70.60380457978974 55.79389036277039 70.24941403733243 H 0.0 **** 0.06
16670 H 69.02374439955508 55.42004578773482 69.51772339214659 H 0.0 **** 0.06
16671 C 72.41477182289171 91.1309366563303 78.38278003508606 C 0.0 **** -0.24
16672 H 71.43962340658564 91.5697453064559 78.59751119521745 H 0.0 **** 0.06
16673 H 72.61311345348258 90.32385677432715 79.09000182673287 H 0.0 **** 0.06
16674 H 73.18531794877981 91.89555696831846 78.47821210254756 H 0.0 **** 0.06
16675 H 72.4191602070307 90.7344350505168 77.36773419638159 H 0.0 **** 0.06
16676 C 90.23645670226074 61.27712889506519 71.08166151027947 C 0.0 **** -0.24
16677 H 89.22220421868622 60.963051566971785 71.32578676043288 H 0.0 **** 0.06
16678 H 90.24929431616275 62.35056821702355 70.89310627833675 H 0.0 **** 0.06
16679 H 90.57596989449814 60.74811964764511 70.1908551905957 H 0.0 **** 0.06
16680 H 90.89952913714066 61.04605287854025 71.9158459771484 H 0.0 **** 0.06
16681 C 5.50640765109072 30.427360616445924 49.05372108386325 C 0.0 **** -0.24
16682 H 6.142411902263456 29.723304424810806 48.51790460886821 H 0.0 **** 0.06
16683 H 5.627861678847639 30.282307586674165 50.127822787412725 H 0.0 **** 0.06
16684 H 4.465192790166496 30.25789400113922 48.778818267047654 H 0.0 **** 0.06
16685 H 5.7905466795277185 31.446859647772612 48.79029999433769 H 0.0 **** 0.06
16686 C 26.73770248039836 71.76564179998427 73.42383143938085 C 0.0 **** -0.24
16687 H 26.565168462125968 72.23814726616206 74.39110569592503 H 0.0 **** 0.06
16688 H 26.42957371043559 70.72106825426556 73.46952208533435 H 0.0 **** 0.06
16689 H 27.798448537139144 71.82069142863325 73.17732941484957 H 0.0 **** 0.06
16690 H 26.160220334941695 72.28203658974431 72.65828812764218 H 0.0 **** 0.06
16691 C 16.312725139463893 14.787130675614435 8.0812631961833 C 0.0 **** -0.24
16692 H 15.345644820498663 14.316627967304328 7.904940475377856 H 0.0 **** 0.06
16693 H 16.771508084077396 15.043452996117082 7.124899209270609 H 0.0 **** 0.06
16694 H 16.960165079411425 14.095814418116959 8.6205434670659 H 0.0 **** 0.06
16695 H 16.174360400259758 15.691597733892081 8.67215262427257 H 0.0 **** 0.06
16696 C 22.121243710220078 71.95513133654367 0.430366286839444 C 0.0 **** -0.24
16697 H 22.8252359657902 72.64881615006101 0.8902447015380801 H 0.0 **** 0.06
16698 H 21.572865938928725 71.4257980617391 1.2099867060544796 H 0.0 **** 0.06
16699 H 22.666951347350746 71.23601164081987 -0.18173499188807796 H 0.0 **** 0.06
16700 H 21.42156580519361 72.50854973341507 -0.19491581426564153 H 0.0 **** 0.06
16701 C 15.316160148969118 107.43192697835129 31.11786162943644 C 0.0 **** -0.24
16702 H 14.46280706263832 106.88542498953284 31.519368726104616 H 0.0 **** 0.06
16703 H 15.871483525166298 107.89047511793598 31.936596298413576 H 0.0 **** 0.06
16704 H 14.963718028777919 108.20788759519304 30.438478434236345 H 0.0 **** 0.06
16705 H 15.967315636761612 106.74449224579993 30.577456311577997 H 0.0 **** 0.06
16706 C 86.97389425522682 46.55935281505539 29.898601300741674 C 0.0 **** -0.24
16707 H 87.72671998039334 46.443935381305714 29.11817951891561 H 0.0 **** 0.06
16708 H 87.46807897197563 46.706085458029456 30.859577843721297 H 0.0 **** 0.06
16709 H 86.35507709934409 45.66367616125446 29.941688067935218 H 0.0 **** 0.06
16710 H 86.34900886246477 47.423851253561075 29.67515881958616 H 0.0 **** 0.06
16711 C 102.1062661576974 77.12188230235392 26.483725452858998 C 0.0 **** -0.24
16712 H 102.60190012495627 77.45360031824205 27.39603624789003 H 0.0 **** 0.06
16713 H 101.069971824172 76.86584634144674 26.706457471855327 H 0.0 **** 0.06
16714 H 102.62039708854383 76.24688871961916 26.088256879999943 H 0.0 **** 0.06
16715 H 102.13194467975643 77.92315819525743 25.745341805361317 H 0.0 **** 0.06
16716 C 72.7312964404822 43.69876381947677 2.015493020808009 C 0.0 **** -0.24
16717 H 72.68640874185391 42.68513302884537 2.4142292688297573 H 0.0 **** 0.06
16718 H 72.31858312936355 43.71022904549568 1.006274918281406 H 0.0 **** 0.06
16719 H 73.76861078394468 44.03227718694768 1.9883334126375871 H 0.0 **** 0.06
16720 H 72.1511894791874 44.36611872627577 2.6527317500869003 H 0.0 **** 0.06
16721 C 11.814887141031818 73.0020279889374 18.379181439077513 C 0.0 **** -0.24
16722 H 12.901892605270803 72.9746647624116 18.462843250208124 H 0.0 **** 0.06
16723 H 11.53523221956479 73.16398380001986 17.33813854435229 H 0.0 **** 0.06
16724 H 11.423046083812608 73.81272755692181 18.99281946034847 H 0.0 **** 0.06
16725 H 11.401281235607144 72.05377681258645 18.723712666923234 H 0.0 **** 0.06
16726 C 97.19457467179666 33.02217649283999 46.004491566336334 C 0.0 **** -0.24
16727 H 98.09951453172505 32.77796045275356 46.55976373264543 H 0.0 **** 0.06
16728 H 97.46227380810728 33.54823321203918 45.08724817183181 H 0.0 **** 0.06
16729 H 96.5542510638158 33.658187916036404 46.61485699691222 H 0.0 **** 0.06
16730 H 96.66346894589935 32.10350929625616 45.75412946264381 H 0.0 **** 0.06
16731 C 27.002635454749225 11.60676324679477 83.62303539329274 C 0.0 **** -0.24
16732 H 27.088870640306027 11.475462603037101 84.7015582193921 H 0.0 **** 0.06
16733 H 25.971621203985762 11.428076867165629 83.31681050038027 H 0.0 **** 0.06
16734 H 27.66070835602028 10.900006763175327 83.117387096688 H 0.0 **** 0.06
16735 H 27.29040537795771 12.624834125451713 83.35743775428466 H 0.0 **** 0.06
16736 C 13.32008155793089 73.02568331344321 46.366378521840886 C 0.0 **** -0.24
16737 H 14.117128956222885 73.36479062699527 47.02730627025488 H 0.0 **** 0.06
16738 H 12.375525055925777 73.01731965078937 46.91150602281505 H 0.0 **** 0.06
16739 H 13.543634546064098 72.01950204248675 46.01225120156283 H 0.0 **** 0.06
16740 H 13.24161655946277 73.70138935281562 45.51419280382896 H 0.0 **** 0.06
16741 C 12.63108706806014 99.48214574808989 39.73971822230027 C 0.0 **** -0.24
16742 H 11.939829111669638 99.94621966879522 39.03633305771029 H 0.0 **** 0.06
16743 H 12.075250656007682 98.84192446672552 40.4258016930738 H 0.0 **** 0.06
16744 H 13.149116670463926 100.25653846262601 40.30401073235075 H 0.0 **** 0.06
16745 H 13.358102476835555 98.8831312285138 39.192270496158024 H 0.0 **** 0.06
16746 C 25.228366580563048 88.64746763043388 93.58749396604507 C 0.0 **** -0.24
16747 H 26.00602232448491 88.47887971612835 94.33231778012573 H 0.0 **** 0.06
16748 H 25.64687216687997 88.51046281672473 92.5898484009082 H 0.0 **** 0.06
16749 H 24.84472692447031 89.66287592433801 93.68517947209118 H 0.0 **** 0.06
16750 H 24.416825239149187 87.93581496683333 93.74181518500312 H 0.0 **** 0.06
16751 C 42.77365894235152 30.523498787701413 58.212222454535095 C 0.0 **** -0.24
16752 H 43.451555918145345 30.927648091192964 57.461279827372806 H 0.0 **** 0.06
16753 H 43.00250312629149 29.470389466292403 58.379120679544485 H 0.0 **** 0.06
16754 H 41.74484114839993 30.62076895798998 57.86282666405117 H 0.0 **** 0.06
16755 H 42.89382303249346 31.074211273755225 59.14448483700511 H 0.0 **** 0.06
16756 C 85.02555787607524 9.488818288084575 87.55459149476141 C 0.0 **** -0.24
16757 H 85.96584073685791 8.944099331983356 87.63165769278291 H 0.0 **** 0.06
16758 H 84.4129081272722 9.281738155078935 88.4323431653654 H 0.0 **** 0.06
16759 H 84.49418289384565 9.170508235287475 86.65794263375219 H 0.0 **** 0.06
16760 H 85.22827374670857 10.558004056278708 87.4967303911416 H 0.0 **** 0.06
16761 C 93.92258074086568 100.87444751226538 101.47187730207233 C 0.0 **** -0.24
16762 H 94.06649542531642 99.84825845720766 101.80952717157294 H 0.0 **** 0.06
16763 H 94.84375615377775 101.43785469753816 101.6229570854804 H 0.0 **** 0.06
16764 H 93.11623052263883 101.33465612430795 102.04268480727688 H 0.0 **** 0.06
16765 H 93.66561212062071 100.8753990701018 100.41185741356418 H 0.0 **** 0.06
16766 C 37.57489203973239 65.11236993584237 12.138723107678317 C 0.0 **** -0.24
16767 H 37.53142130511753 65.62114757712146 13.101304756643742 H 0.0 **** 0.06
16768 H 38.23816480087285 64.24980417666967 12.213352116695972 H 0.0 **** 0.06
16769 H 37.95503715910178 65.79920169083562 11.38260956817723 H 0.0 **** 0.06
16770 H 36.57609457932094 64.77875821944212 11.858222318207538 H 0.0 **** 0.06
16771 C 36.09452424862809 19.447496043807575 21.900800798428037 C 0.0 **** -0.24
16772 H 35.78618197307827 18.532900843438938 21.39521650482152 H 0.0 **** 0.06
16773 H 36.06663478035699 20.27892950662826 21.197072585494794 H 0.0 **** 0.06
16774 H 37.10947140378016 19.32793508247184 22.281568938160945 H 0.0 **** 0.06
16775 H 35.4174236492907 19.649144601147356 22.730841460475617 H 0.0 **** 0.06
16776 C 47.086170334774636 39.65032320098388 41.42092565886463 C 0.0 **** -0.24
16777 H 47.70913905481348 40.3616371830566 40.87984600410965 H 0.0 **** 0.06
16778 H 46.21034103286098 39.405181577626394 40.82054206613395 H 0.0 **** 0.06
16779 H 46.767360140508174 40.091402822618036 42.36518021995721 H 0.0 **** 0.06
16780 H 47.65710583440398 38.74297418670844 41.618805167451 H 0.0 **** 0.06
16781 C 34.99633106763807 13.55892443432014 3.840556797251338 C 0.0 **** -0.24
16782 H 35.183763997682746 12.862570104740517 3.023951416781955 H 0.0 **** 0.06
16783 H 35.82984445833405 14.258510837344947 3.9199751390047908 H 0.0 **** 0.06
16784 H 34.8962632162266 13.006160161710934 4.77450536835498 H 0.0 **** 0.06
16785 H 34.076213984557654 14.11073050545248 3.6442953593846568 H 0.0 **** 0.06
16786 C 32.308250387870984 107.38930300370994 20.671990849881325 C 0.0 **** -0.24
16787 H 32.53878852691275 106.45373402342506 21.181479523567646 H 0.0 **** 0.06
16788 H 32.893613023288474 108.1969288617681 21.112767409838796 H 0.0 **** 0.06
16789 H 31.245939328488284 107.60920333125922 20.779354421575817 H 0.0 **** 0.06
16790 H 32.55513410555605 107.29615160008417 19.613770562569357 H 0.0 **** 0.06
16791 C 23.20170468537873 17.451622855463064 11.005381688579973 C 0.0 **** -0.24
16792 H 22.759952139361417 18.10711411394942 11.755711447364547 H 0.0 **** 0.06
16793 H 23.131246566016557 16.41715814984 11.341252614802073 H 0.0 **** 0.06
16794 H 24.249535634157496 17.717667175410128 10.862683983777742 H 0.0 **** 0.06
16795 H 22.66626009428751 17.566172890852556 10.063037150004163 H 0.0 **** 0.06
16796 C 71.67501886672966 93.18784214621704 24.81234484802212 C 0.0 **** -0.24
16797 H 71.7163418358727 94.25916371586038 24.614513118077056 H 0.0 **** 0.06
16798 H 72.49712960410454 92.69151144807404 24.29448989734763 H 0.0 **** 0.06
16799 H 70.72554366194021 92.78894748612419 24.454010095841582 H 0.0 **** 0.06
16800 H 71.76113105523481 93.01213542855803 25.88440579728571 H 0.0 **** 0.06
16801 C 30.43609577190506 69.44836764510796 1.0053585720755507 C 0.0 **** -0.24
16802 H 31.02704414167846 70.36395186792879 1.045464295741624 H 0.0 **** 0.06
16803 H 29.55055007230567 69.61507401052421 0.39199190371473946 H 0.0 **** 0.06
16804 H 30.133284495399067 69.16860619702413 2.0138791099938658 H 0.0 **** 0.06
16805 H 31.035029554191738 68.64840568936057 0.5698094128823357 H 0.0 **** 0.06
16806 C 60.772533505392744 67.16280275236002 97.33985682396184 C 0.0 **** -0.24
16807 H 60.069460451742884 67.85604190254372 96.8777392608049 H 0.0 **** 0.06
16808 H 60.43281837522454 66.91943527837874 98.34740625196864 H 0.0 **** 0.06
16809 H 61.75847331991099 67.62458218849974 97.39048573720493 H 0.0 **** 0.06
16810 H 60.82742426700236 66.2519820084701 96.74501200542545 H 0.0 **** 0.06
16811 C 89.31531370113723 80.77233638123244 46.799388107375705 C 0.0 **** -0.24
16812 H 88.30599136945384 80.91367846525247 46.412388458822875 H 0.0 **** 0.06
16813 H 89.52171299112703 79.70695962934587 46.89407970291283 H 0.0 **** 0.06
16814 H 89.39936995532938 81.24780463134721 47.77620145332682 H 0.0 **** 0.06
16815 H 90.03283508273887 81.2230550864744 46.11328344348855 H 0.0 **** 0.06
16816 C 8.255299706000983 51.66516419095797 94.78574995581465 C 0.0 **** -0.24
16817 H 7.554307304251495 52.38840876489877 95.20275213235065 H 0.0 **** 0.06
16818 H 7.754888566427724 50.70532805437119 94.66086158341963 H 0.0 **** 0.06
16819 H 9.101485832831088 51.54895727607459 95.46257255540071 H 0.0 **** 0.06
16820 H 8.609777438663912 52.019827414941574 93.81780139781672 H 0.0 **** 0.06
16821 C 10.039141984906282 24.314184885663053 103.42353979044083 C 0.0 **** -0.24
16822 H 9.414308090458917 23.754709456483965 102.72680903214972 H 0.0 **** 0.06
16823 H 11.070453970725094 24.307070878751233 103.07035165823896 H 0.0 **** 0.06
16824 H 9.988022617913652 23.851249977072143 104.40830670396278 H 0.0 **** 0.06
16825 H 9.682216453324134 25.34222111664917 103.48518014740023 H 0.0 **** 0.06
16826 C 74.29290289065162 40.16749427933644 60.32338309553606 C 0.0 **** -0.24
16827 H 73.39269427538812 40.74338945749031 60.10801115761984 H 0.0 **** 0.06
16828 H 75.13361556186038 40.846472863976885 60.464596168505224 H 0.0 **** 0.06
16829 H 74.50303090614545 39.49732969420387 59.48907285888956 H 0.0 **** 0.06
16830 H 74.14081390319342 39.581723074426634 61.2301939477163 H 0.0 **** 0.06
16831 C 13.158698446717807 47.02521123187026 35.43263177199996 C 0.0 **** -0.24
16832 H 13.802839721870882 47.50901767059126 34.698470206163464 H 0.0 **** 0.06
16833 H 13.447340833026573 47.342311606811464 36.43536246838766 H 0.0 **** 0.06
16834 H 13.262939853349394 45.94297463202389 35.34936364680928 H 0.0 **** 0.06
16835 H 12.121484455034704 47.305479770981286 35.246415254967964 H 0.0 **** 0.06
16836 C 101.45253987937144 3.751498550653764 11.947471816714625 C 0.0 **** -0.24
16837 H 101.25615301925762 3.212573458207686 12.8740055603208 H 0.0 **** 0.06
16838 H 100.98644361902024 3.2248509990286607 11.115397037157837 H 0.0 **** 0.06
16839 H 102.52830513024458 3.810576668900268 11.784270317708923 H 0.0 **** 0.06
16840 H 101.03947260820865 4.7579948601470505 12.018440127952541 H 0.0 **** 0.06
16841 C 42.4316260310963 73.23201352827473 80.11607740445403 C 0.0 **** -0.24
16842 H 42.62543775282339 74.29785608279678 79.99169663440003 H 0.0 **** 0.06
16843 H 42.10312845668997 73.04031012833838 81.13841594883405 H 0.0 **** 0.06
16844 H 43.34489410407255 72.67186047754535 79.91679162386869 H 0.0 **** 0.06
16845 H 41.65364239513295 72.91988818324091 79.41989132480377 H 0.0 **** 0.06
16846 C 83.74591158853798 25.175394531160805 11.001168783517624 C 0.0 **** -0.24
16847 H 84.72080681912195 25.108430968964 11.483392799376148 H 0.0 **** 0.06
16848 H 83.3317373752214 26.171657444894265 11.158021643960687 H 0.0 **** 0.06
16849 H 83.07578168905354 24.431485352354855 11.431935439011891 H 0.0 **** 0.06
16850 H 83.85473647053306 24.99075292430132 9.93237343680522 H 0.0 **** 0.06
16851 C 50.907293466794215 105.50206181047898 71.67300910833026 C 0.0 **** -0.24
16852 H 51.81702687081105 105.74023134190938 71.12151632493175 H 0.0 **** 0.06
16853 H 50.853240604216865 104.42482017110844 71.8344051028747 H 0.0 **** 0.06
16854 H 50.03952367305109 105.82726784335622 71.1004696691779 H 0.0 **** 0.06
16855 H 50.92118813777208 106.01360371527194 72.63506297744057 H 0.0 **** 0.06
16856 C 85.0456918403847 87.21083292374357 101.07734345154648 C 0.0 **** -0.24
16857 H 85.91333873698024 87.08586368874614 101.7263854338675 H 0.0 **** 0.06
16858 H 85.33369299019016 87.78068396642615 100.19415096378106 H 0.0 **** 0.06
16859 H 84.26296800331065 87.7444503310725 101.61601282543342 H 0.0 **** 0.06
16860 H 84.67560153816926 86.23178120061107 100.77411462214474 H 0.0 **** 0.06
16861 C 94.52502385712225 60.12052876823226 68.77663263740811 C 0.0 **** -0.24
16862 H 94.75997708087714 59.30038483412933 69.4540968125808 H 0.0 **** 0.06
16863 H 95.43330361182225 60.44416833453924 68.26823398901824 H 0.0 **** 0.06
16864 H 94.10980848633251 60.95280851380569 69.34397594465679 H 0.0 **** 0.06
16865 H 93.79582382917172 59.78411871909556 68.03843513843665 H 0.0 **** 0.06
16866 C 97.47693349894615 62.3033500523577 58.376038839057586 C 0.0 **** -0.24
16867 H 96.74047343268808 63.106263046116965 58.36315030484315 H 0.0 **** 0.06
16868 H 97.05415371423851 61.431537991973585 58.87592270266709 H 0.0 **** 0.06
16869 H 98.36647785566197 62.63491967279492 58.91141933510431 H 0.0 **** 0.06
16870 H 97.74600215977904 62.040683293156576 57.35239527367342 H 0.0 **** 0.06
16871 C 89.01494449369704 80.62339258980187 27.740065754795772 C 0.0 **** -0.24
16872 H 89.1829929107605 79.55547772026117 27.60037170001015 H 0.0 **** 0.06
16873 H 89.34154249335853 81.16139352184186 26.849051892994442 H 0.0 **** 0.06
16874 H 89.58296681763932 80.9717715070499 28.602463931556436 H 0.0 **** 0.06
16875 H 87.9537762364667 80.80602024555128 27.90581518358755 H 0.0 **** 0.06
16876 C 32.102146516104284 5.551064520946198 75.17241910015561 C 0.0 **** -0.24
16877 H 31.109262708345028 5.38806908780839 74.75544547418718 H 0.0 **** 0.06
16878 H 32.75694914608883 5.964222682045374 74.40354275211133 H 0.0 **** 0.06
16879 H 32.50899728307252 4.60277139187032 75.52450501334867 H 0.0 **** 0.06
16880 H 32.035754937317506 6.249457108593063 76.00670910964914 H 0.0 **** 0.06
16881 C 72.57277860791493 66.63181930236448 46.59044539754738 C 0.0 **** -0.24
16882 H 73.05634789514852 66.33273908613147 45.6601424016332 H 0.0 **** 0.06
16883 H 71.60183602006072 67.07442861363603 46.3683703101673 H 0.0 **** 0.06
16884 H 73.19701338929775 67.36122528813405 47.105547965944666 H 0.0 **** 0.06
16885 H 72.43668521758383 65.75680205391963 47.22570223442613 H 0.0 **** 0.06
16886 C 65.8496645944952 77.06951630512515 11.685810967873977 C 0.0 **** -0.24
16887 H 65.32650605042359 77.80912928114988 11.07922406156635 H 0.0 **** 0.06
16888 H 65.168132858555 76.66577825978575 12.434376218183587 H 0.0 **** 0.06
16889 H 66.69783556836379 77.54134445412606 12.182371220287578 H 0.0 **** 0.06
16890 H 66.20729612632978 76.2623239063067 11.045400899632455 H 0.0 **** 0.06
16891 C 33.63470260731043 85.65152462790286 104.87092135442771 C 0.0 **** -0.24
16892 H 34.57957094793974 85.1488913346032 104.66886600919884 H 0.0 **** 0.06
16893 H 33.006910809575515 85.0105888632396 105.4903095125419 H 0.0 **** 0.06
16894 H 33.12437606040942 85.85846910472048 103.92936267538786 H 0.0 **** 0.06
16895 H 33.82582425031691 86.58848682489344 105.39455027609117 H 0.0 **** 0.06
16896 C 94.02823371161796 2.8750664485527295 44.517410166888226 C 0.0 **** -0.24
16897 H 93.43336261233168 2.007679358046971 44.23027796346045 H 0.0 **** 0.06
16898 H 94.83883780955267 3.0115861830919357 43.800416927225086 H 0.0 **** 0.06
16899 H 94.44460655185702 2.7170202814379536 45.51215984337671 H 0.0 **** 0.06
16900 H 93.3952419950354 3.7625414335840333 44.524517404152135 H 0.0 **** 0.06
16901 C 10.70824273061903 53.41915770322751 68.96722922304144 C 0.0 **** -0.24
16902 H 9.942599076229277 54.09049402643154 68.57880396274602 H 0.0 **** 0.06
16903 H 11.516870367700367 54.00473678661692 69.40536890048546 H 0.0 **** 0.06
16904 H 11.101327836574404 52.807344157857045 68.15465295061033 H 0.0 **** 0.06
16905 H 10.27348282070821 52.77319448744947 69.72935333310566 H 0.0 **** 0.06
16906 C 93.96457293321922 67.97368021293147 50.24762321440862 C 0.0 **** -0.24
16907 H 94.55548836479505 67.16366228170165 49.820867155442706 H 0.0 **** 0.06
16908 H 94.62528161029013 68.68259760290238 50.74532390491076 H 0.0 **** 0.06
16909 H 93.25785562300382 67.56537614240472 50.970333606656745 H 0.0 **** 0.06
16910 H 93.41848900087979 68.48208080736163 49.45318943934793 H 0.0 **** 0.06
16911 C 50.559347271574836 98.76611229491789 8.01247330691237 C 0.0 **** -0.24
16912 H 49.54876135932838 99.14717790860516 8.160412446960066 H 0.0 **** 0.06
16913 H 51.015285575486104 99.26762843620281 7.15779513701213 H 0.0 **** 0.06
16914 H 50.51929688791745 97.69310614864253 7.826361473704736 H 0.0 **** 0.06
16915 H 51.154166836106526 98.95740360131725 8.90580762408564 H 0.0 **** 0.06
16916 C 29.10391673106961 101.11775041612839 67.87923912074558 C 0.0 **** -0.24
16917 H 30.024365196408652 101.12540854640318 67.29600262785323 H 0.0 **** 0.06
16918 H 28.864232687456578 100.09349307994394 68.16774807276249 H 0.0 **** 0.06
16919 H 28.29024464534463 101.52604429561107 67.27891857290257 H 0.0 **** 0.06
16920 H 29.23548174049651 101.7259717165651 68.77385095560976 H 0.0 **** 0.06
16921 C 105.41471334983157 29.29686251062276 30.256473676818615 C 0.0 **** -0.24
16922 H 104.58267615393316 28.595302689874188 30.316304967759862 H 0.0 **** 0.06
16923 H 105.15062053668032 30.218872971288704 30.77467785833062 H 0.0 **** 0.06
16924 H 105.63085578968465 29.515443379246193 29.21109256259649 H 0.0 **** 0.06
16925 H 106.29563228645594 28.855168593118123 30.724841365133642 H 0.0 **** 0.06
16926 C 28.083319273521795 53.58951441312871 109.03683584667755 C 0.0 **** -0.24
16927 H 28.762337545273624 53.06736211083586 109.71091894458871 H 0.0 **** 0.06
16928 H 27.22280155839161 53.951916264018735 109.59788036287085 H 0.0 **** 0.06
16929 H 27.74777803747321 52.90373420505267 108.25814752346574 H 0.0 **** 0.06
16930 H 28.602192336439828 54.432534215341036 108.57981478091821 H 0.0 **** 0.06
16931 C 47.384919326877366 23.471385646053932 87.09594450743836 C 0.0 **** -0.24
16932 H 47.341434799818785 23.54797302839414 86.00979152488853 H 0.0 **** 0.06
16933 H 46.63059004094322 22.763913130803957 87.44058176878052 H 0.0 **** 0.06
16934 H 47.19556753615575 24.449841051376012 87.5375073995031 H 0.0 **** 0.06
16935 H 48.3735389914732 23.12313914171554 87.39524268707656 H 0.0 **** 0.06
16936 C 68.07551884146613 76.67006688566161 19.54801502019779 C 0.0 **** -0.24
16937 H 68.27941001031388 76.82598692181433 18.48892240383341 H 0.0 **** 0.06
16938 H 67.10782646139407 76.18157237017022 19.66410744260105 H 0.0 **** 0.06
16939 H 68.06184871876775 77.6315470259858 20.061568273509135 H 0.0 **** 0.06
16940 H 68.85473736492366 76.04028727709441 19.977890612850867 H 0.0 **** 0.06
16941 C 81.67318680464876 105.50153208457913 95.22564219834052 C 0.0 **** -0.24
16942 H 81.29378246764927 105.28667796948585 94.22642653423492 H 0.0 **** 0.06
16943 H 82.55969394845096 106.1312882013692 95.15006319656891 H 0.0 **** 0.06
16944 H 81.93197197024452 104.56659884270246 95.7240827710387 H 0.0 **** 0.06
16945 H 80.90560866187826 106.0194855380164 95.80108715856062 H 0.0 **** 0.06
16946 C 19.462521663954874 2.9638207993766343 49.16080452339247 C 0.0 **** -0.24
16947 H 18.663067852005554 3.193006357996234 48.45650953912207 H 0.0 **** 0.06
16948 H 20.112605288433826 2.1981053086167517 48.736347245454965 H 0.0 **** 0.06
16949 H 19.03207311665318 2.598721817123944 50.092601487065224 H 0.0 **** 0.06
16950 H 20.04332463560047 3.8653081954271347 49.35675416322334 H 0.0 **** 0.06
16951 C 72.37029304712165 26.10001209824631 12.827270423011115 C 0.0 **** -0.24
16952 H 72.95283943592355 25.45330782864118 12.171345014032482 H 0.0 **** 0.06
16953 H 71.38470172413727 26.264490731037977 12.390382054188237 H 0.0 **** 0.06
16954 H 72.8821315602877 27.055413685381872 12.942135562417903 H 0.0 **** 0.06
16955 H 72.2612881225443 25.625880375049395 13.80238317051085 H 0.0 **** 0.06
16956 C 22.10165808337925 51.91950477293468 44.63052086478092 C 0.0 **** -0.24
16957 H 21.02242052855246 51.76412819175426 44.603887126008715 H 0.0 **** 0.06
16958 H 22.607871937767158 50.955533761092354 44.57255257635637 H 0.0 **** 0.06
16959 H 22.373848877613682 52.41808174187667 45.56054076575117 H 0.0 **** 0.06
16960 H 22.399691774917073 52.53921167368342 43.78492040994769 H 0.0 **** 0.06
16961 C 8.592820413344946 77.54498841953344 51.03292473041128 C 0.0 **** -0.24
16962 H 7.753275743508462 76.93715208836014 51.371751610690495 H 0.0 **** 0.06
16963 H 8.256690070520321 78.21979110655559 50.24474222460961 H 0.0 **** 0.06
16964 H 9.376827203394068 76.89532268167207 50.64527464186144 H 0.0 **** 0.06
16965 H 8.981796522268569 78.12575425418925 51.86892321408949 H 0.0 **** 0.06
16966 C 36.163273045816766 61.463198462501296 89.3252531893637 C 0.0 **** -0.24
16967 H 37.03024393543379 62.05718729585372 89.61669215367988 H 0.0 **** 0.06
16968 H 35.25482814512836 61.94273085361486 89.69099279008259 H 0.0 **** 0.06
16969 H 36.246049974786644 60.46481355796254 89.75548970191892 H 0.0 **** 0.06
16970 H 36.12392123879465 61.3889537126759 88.23846939367053 H 0.0 **** 0.06
16971 C 41.966722696771846 22.178250541627175 13.394312532978063 C 0.0 **** -0.24
16972 H 41.969038405956 22.763195384574903 12.47421087351151 H 0.0 **** 0.06
16973 H 41.76348599610485 21.132979465082347 13.159252678336344 H 0.0 **** 0.06
16974 H 41.194256897236926 22.55757347813414 14.064162232873002 H 0.0 **** 0.06
16975 H 42.93937864947502 22.259683062811963 13.878492207126271 H 0.0 **** 0.06
16976 C 14.426042227477822 2.590690891028564 31.945478109200565 C 0.0 **** -0.24
16977 H 14.734667827930622 1.7818432353981217 32.60797383450611 H 0.0 **** 0.06
16978 H 13.356734332539276 2.5112176399435926 31.7484057498485 H 0.0 **** 0.06
16979 H 14.975610290587753 2.521530864060461 31.006907025451 H 0.0 **** 0.06
16980 H 14.637979958025255 3.5495873749264906 32.420447464717014 H 0.0 **** 0.06
16981 C 31.95592669873801 49.37019155721691 13.23766417133703 C 0.0 **** -0.24
16982 H 31.578333066329975 50.34344889258429 12.921869709512634 H 0.0 **** 0.06
16983 H 32.230171046391916 48.78455210643773 12.361207527537374 H 0.0 **** 0.06
16984 H 31.182637599501277 48.84681594991906 13.799249218379373 H 0.0 **** 0.06
16985 H 32.83256865531018 49.510057509470386 13.870999242164231 H 0.0 **** 0.06
16986 C 41.17121743804715 9.867684131589613 16.27385547758115 C 0.0 **** -0.24
16987 H 41.95709137203537 9.734989799060486 17.01701037847471 H 0.0 **** 0.06
16988 H 40.81530455006825 8.891497119362157 15.943011337934763 H 0.0 **** 0.06
16989 H 41.56661284508681 10.418498891386434 15.420073032007167 H 0.0 **** 0.06
16990 H 40.34493189115488 10.426099481788242 16.715203885856 H 0.0 **** 0.06
16991 C 2.284652480854027 28.84463960604316 95.32879979126349 C 0.0 **** -0.24
16992 H 1.5204418140971114 29.618526500228455 95.39790822025589 H 0.0 **** 0.06
16993 H 1.929644845932403 28.04149884915256 94.68146798588052 H 0.0 **** 0.06
16994 H 2.4907674462984044 28.44682350313903 96.32245960857534 H 0.0 **** 0.06
16995 H 3.19711967846057 29.271458126881157 94.91212552876118 H 0.0 **** 0.06
16996 C 21.50860360546153 43.09795762914575 108.42466190980127 C 0.0 **** -0.24
16997 H 21.857847057937505 43.491269901675565 109.37939974546089 H 0.0 **** 0.06
16998 H 21.5165130801318 42.00808871462246 108.45667897249093 H 0.0 **** 0.06
16999 H 22.166580831587794 43.442926051905715 107.62666463414205 H 0.0 **** 0.06
17000 H 20.494599659075988 43.448833882410554 108.23637848285185 H 0.0 **** 0.06
17001 C 29.410128266322246 93.14379045750883 97.3998188925846 C 0.0 **** -0.24
17002 H 28.972996346540896 93.61988854075436 98.27702874260598 H 0.0 **** 0.06
17003 H 30.46026757377024 92.9219177192629 97.59295057466716 H 0.0 **** 0.06
17004 H 29.33234208011349 93.81604241211954 96.54550076171678 H 0.0 **** 0.06
17005 H 28.876449671103103 92.2187747585223 97.18449143483878 H 0.0 **** 0.06
17006 C 47.98806193567987 22.37114839547185 74.36093036758803 C 0.0 **** -0.24
17007 H 47.57492370974837 21.51085839956616 74.88922846588142 H 0.0 **** 0.06
17008 H 47.63318205284429 23.289317085334446 74.82951484338972 H 0.0 **** 0.06
17009 H 47.66764377645163 22.34563760416296 73.3204169552422 H 0.0 **** 0.06
17010 H 49.07699397501877 22.336497874827998 74.40748431368985 H 0.0 **** 0.06
17011 C 90.63391843592458 57.799060229491005 83.21512259136725 C 0.0 **** -0.24
17012 H 89.88606379443024 57.26102810148342 83.79698485120753 H 0.0 **** 0.06
17013 H 90.6154515889366 58.85512835684136 83.48621666977458 H 0.0 **** 0.06
17014 H 90.41388412709979 57.69241324015215 82.15254495963387 H 0.0 **** 0.06
17015 H 91.62156935844673 57.387500586563704 83.42420200463026 H 0.0 **** 0.06
17016 C 53.08026302435786 47.391563173956285 50.063489619189966 C 0.0 **** -0.24
17017 H 52.551181295030744 47.592434317242294 49.1315152590297 H 0.0 **** 0.06
17018 H 52.480316075616315 46.726607039607444 50.68480826792785 H 0.0 **** 0.06
17019 H 53.25129413849589 48.32879867504775 50.592342906436784 H 0.0 **** 0.06
17020 H 54.03632340419449 46.918822685203736 49.84211715848696 H 0.0 **** 0.06
17021 C 71.61283061840231 70.98557963219531 75.96716868422143 C 0.0 **** -0.24
17022 H 70.62480088274418 70.6354305532571 76.26572641640287 H 0.0 **** 0.06
17023 H 71.68275782780245 70.989940621252 74.87882494494585 H 0.0 **** 0.06
17024 H 72.37237419678058 70.3211366269758 76.37798355978693 H 0.0 **** 0.06
17025 H 71.77008122842966 71.99548536158852 76.34571262924099 H 0.0 **** 0.06
17026 C 43.00550648723245 18.159493030860915 66.54095956634794 C 0.0 **** -0.24
17027 H 43.578601646599815 17.8920631202227 65.65310200359471 H 0.0 **** 0.06
17028 H 42.662602206554745 17.250861407892387 67.03728019057797 H 0.0 **** 0.06
17029 H 42.144960676449024 18.761206213157664 66.24974489894822 H 0.0 **** 0.06
17030 H 43.63561681295953 18.73055572130437 67.22193767458441 H 0.0 **** 0.06
17031 C 27.462152294613205 92.87472119613517 103.79642847473332 C 0.0 **** -0.24
17032 H 28.348714782803142 92.70003149442482 103.18763435658869 H 0.0 **** 0.06
17033 H 27.76244836592045 93.06995527142715 104.82669536736745 H 0.0 **** 0.06
17034 H 26.821167086704477 91.9941068158148 103.76475668431874 H 0.0 **** 0.06
17035 H 26.917250507869326 93.73537315022554 103.4074745432697 H 0.0 **** 0.06
17036 C 94.64061284763301 105.12139778822763 44.06679775486464 C 0.0 **** -0.24
17037 H 95.54014420939299 105.73593523249941 44.090480787351225 H 0.0 **** 0.06
17038 H 93.93259803065519 105.48622521445314 44.81150163844546 H 0.0 **** 0.06
17039 H 94.9019600140046 104.08646623592487 44.289050398647646 H 0.0 **** 0.06
17040 H 94.18787336220026 105.17730158468176 43.07709145340874 H 0.0 **** 0.06
17041 C 81.89438068673113 21.74703585427676 87.42128564482714 C 0.0 **** -0.24
17042 H 82.67744776899633 22.37923516261293 87.84180665748023 H 0.0 **** 0.06
17043 H 81.73825403968692 20.88356668991827 88.06900271612763 H 0.0 **** 0.06
17044 H 82.19488562599597 21.40835097839971 86.42960917740999 H 0.0 **** 0.06
17045 H 80.96856939860577 22.31759050178141 87.34612763463323 H 0.0 **** 0.06
17046 C 16.38789641254604 31.97906739582112 69.80976095564131 C 0.0 **** -0.24
17047 H 16.69883591925883 32.36856827949208 68.8411364282559 H 0.0 **** 0.06
17048 H 16.926641139406108 32.50186567565129 70.60150842575514 H 0.0 **** 0.06
17049 H 16.610660906005336 30.913031822439706 69.86130734553957 H 0.0 **** 0.06
17050 H 15.316236147960705 32.13230794057728 69.93712452549177 H 0.0 **** 0.06
17051 C 75.37868577390572 5.26522504891517 77.74785396907262 C 0.0 **** -0.24
17052 H 75.282396999767 4.343236594561063 78.3215225507146 H 0.0 **** 0.06
17053 H 75.9937768703112 5.974549573659601 78.30103883400923 H 0.0 **** 0.06
17054 H 74.38928297605776 5.693341746948647 77.5816337974911 H 0.0 **** 0.06
17055 H 75.84638534680818 5.048587449869501 76.78764664654764 H 0.0 **** 0.06
17056 C 40.236285754322836 66.3949385724014 7.205555659618028 C 0.0 **** -0.24
17057 H 40.22350218493622 67.39564001013667 6.774752886418298 H 0.0 **** 0.06
17058 H 41.26428188800361 66.03806700034491 7.2652169806803215 H 0.0 **** 0.06
17059 H 39.652677360532806 65.72150036436649 6.577234781608723 H 0.0 **** 0.06
17060 H 39.80321365833677 66.42500280628165 8.205816429703646 H 0.0 **** 0.06
17061 C 60.627833756495875 31.72248734181278 18.342613396564957 C 0.0 **** -0.24
17062 H 59.634869143579664 31.85116994398436 17.908932576948583 H 0.0 **** 0.06
17063 H 61.294606949462434 31.288383464744072 17.597883127100225 H 0.0 **** 0.06
17064 H 60.56347311810421 31.05901165973978 19.2053715435299 H 0.0 **** 0.06
17065 H 61.0140835948481 32.69193241503632 18.65647984441615 H 0.0 **** 0.06
17066 C 44.21704251597606 29.361222138609207 22.52909649333185 C 0.0 **** -0.24
17067 H 43.19003772771285 29.070093248375656 22.75112809399144 H 0.0 **** 0.06
17068 H 44.76454860142081 28.49632639993895 22.152356009528404 H 0.0 **** 0.06
17069 H 44.69517883635521 29.72619855572259 23.43798907651876 H 0.0 **** 0.06
17070 H 44.21639079876343 30.149043292442457 21.77650349810841 H 0.0 **** 0.06
17071 C 7.053608413439703 47.5006017474372 34.16206901483602 C 0.0 **** -0.24
17072 H 7.1744490576861235 48.00851078167264 33.20449610105999 H 0.0 **** 0.06
17073 H 8.03458685494604 47.302310589487035 34.59449334739628 H 0.0 **** 0.06
17074 H 6.5279061785729 46.558300738597524 34.00855087126604 H 0.0 **** 0.06
17075 H 6.477625962126268 48.132428472096876 34.838444713749084 H 0.0 **** 0.06
17076 C 84.54563981731481 10.299888574802424 50.84789733542009 C 0.0 **** -0.24
17077 H 84.30958711611508 11.031183777605293 51.620750683568055 H 0.0 **** 0.06
17078 H 84.5540536819056 10.790724444848877 49.87496712559327 H 0.0 **** 0.06
17079 H 83.79181187794919 9.512617765218579 50.85189381191253 H 0.0 **** 0.06
17080 H 85.52619004886273 9.86645853895476 51.04623931124555 H 0.0 **** 0.06
17081 C 78.26228243109495 48.88004304350525 63.76550591222589 C 0.0 **** -0.24
17082 H 78.20589083948181 48.62932980287454 64.82463135659549 H 0.0 **** 0.06
17083 H 78.75002657766012 49.84724988648139 63.64635723272241 H 0.0 **** 0.06
17084 H 77.25606944992853 48.92651119269044 63.34995330231618 H 0.0 **** 0.06
17085 H 78.83757387140642 48.115531194392986 63.24263471318251 H 0.0 **** 0.06
17086 C 39.67095282484558 36.142773907127285 58.22472508267428 C 0.0 **** -0.24
17087 H 39.957073033105246 36.33614830858128 59.25920586806575 H 0.0 **** 0.06
17088 H 39.01170447856531 35.27581583425982 58.18614838190617 H 0.0 **** 0.06
17089 H 40.565255602938315 35.94635981857465 57.633145061745154 H 0.0 **** 0.06
17090 H 39.152572768197864 37.01229734726392 57.8226294642425 H 0.0 **** 0.06
17091 C 35.65005912769697 1.732852712766345 12.58318603092998 C 0.0 **** -0.24
17092 H 35.39475808841478 0.6758015227127032 12.659232299730014 H 0.0 **** 0.06
17093 H 36.40083660693169 1.9793523713470336 13.334405699798001 H 0.0 **** 0.06
17094 H 34.75774293904241 2.335088655367798 12.749812804881959 H 0.0 **** 0.06
17095 H 36.04797745076154 1.9402565892000894 11.589367863714301 H 0.0 **** 0.06
17096 C 85.43591386519843 101.43177062487369 13.127173096058996 C 0.0 **** -0.24
17097 H 84.44439620515519 101.67438095645181 13.509587564124281 H 0.0 **** 0.06
17098 H 85.46329600334288 100.38381611242092 12.828585718252377 H 0.0 **** 0.06
17099 H 86.17884415971005 101.60723720346327 13.904800183868907 H 0.0 **** 0.06
17100 H 85.65667409295524 102.06108984059492 12.265018754209049 H 0.0 **** 0.06
17101 C 73.38933964946659 81.90700790400865 62.06735546196073 C 0.0 **** -0.24
17102 H 73.91648017096361 82.7753138643526 61.67156193990131 H 0.0 **** 0.06
17103 H 72.31556029322883 82.04918171278553 61.94810223320741 H 0.0 **** 0.06
17104 H 73.62526971475853 81.79008508513343 63.12504110457847 H 0.0 **** 0.06
17105 H 73.70101361468082 81.01430303913094 61.525301759657566 H 0.0 **** 0.06
17106 C 29.145597046317334 73.69095999449515 94.45000907909116 C 0.0 **** -0.24
17107 H 28.49421365202079 73.51106707053196 93.59451501473615 H 0.0 **** 0.06
17108 H 29.821399990662428 72.84523786592484 94.57662392522803 H 0.0 **** 0.06
17109 H 28.540352294474133 73.81032121073757 95.34845804131373 H 0.0 **** 0.06
17110 H 29.725101408485074 74.59900826846939 94.28025059236836 H 0.0 **** 0.06
17111 C 43.70102271125586 43.01573316605766 77.31088858567989 C 0.0 **** -0.24
17112 H 42.90315751961646 42.50143296793843 76.77483698137428 H 0.0 **** 0.06
17113 H 43.302730615079156 43.91907906203515 77.77359961303881 H 0.0 **** 0.06
17114 H 44.493757644174934 43.282721300929495 76.61321499157458 H 0.0 **** 0.06
17115 H 44.10230055144251 42.35786198072351 78.08291549459676 H 0.0 **** 0.06
17116 C 12.316603673986567 68.79232314486336 8.511339702631616 C 0.0 **** -0.24
17117 H 12.073453556962697 67.92595761142377 7.896466845525879 H 0.0 **** 0.06
17118 H 13.36738856868558 68.74870351239008 8.79972720475159 H 0.0 **** 0.06
17119 H 11.69279787099503 68.78933576386237 9.40589899204734 H 0.0 **** 0.06
17120 H 12.13278688863819 69.7040053676456 7.943844572269015 H 0.0 **** 0.06
17121 C 45.0013335808971 88.33986489764396 47.45959416471965 C 0.0 **** -0.24
17122 H 45.28898075881267 89.32706042881468 47.82353513407685 H 0.0 **** 0.06
17123 H 44.844869556199 88.38255348690123 46.38177342284348 H 0.0 **** 0.06
17124 H 44.07856906217205 88.02764735683131 47.94961535068086 H 0.0 **** 0.06
17125 H 45.792151343772844 87.62479653288922 47.68474373403302 H 0.0 **** 0.06
17126 C 7.480979015943461 51.53954484548055 33.68422692137585 C 0.0 **** -0.24
17127 H 6.556678483678155 51.0777389174651 34.03231269644337 H 0.0 **** 0.06
17128 H 7.5432866482200325 51.455219855744076 32.59905921906102 H 0.0 **** 0.06
17129 H 8.332897152525959 51.03336363423625 34.137840099925995 H 0.0 **** 0.06
17130 H 7.490953465440896 52.59191635265816 33.96868887745228 H 0.0 **** 0.06
17131 C 50.982539064312405 80.27775062014348 73.95475704600564 C 0.0 **** -0.24
17132 H 50.46501398406034 80.16972204284929 73.00108963815444 H 0.0 **** 0.06
17133 H 51.71510202925596 81.08222863418004 73.87923511724311 H 0.0 **** 0.06
17134 H 51.490568846804685 79.34577956700724 74.20035733941712 H 0.0 **** 0.06
17135 H 50.26065609492249 80.51604812317365 74.73553685678398 H 0.0 **** 0.06
17136 C 34.84364935501169 38.91020438462374 11.833847861356531 C 0.0 **** -0.24
17137 H 34.78487526577428 39.9929974026054 11.94970039754864 H 0.0 **** 0.06
17138 H 35.02029596126198 38.66715614413965 10.78616786103018 H 0.0 **** 0.06
17139 H 33.90695461835504 38.458468951832884 12.159304305147543 H 0.0 **** 0.06
17140 H 35.66315417322761 38.524393327227045 12.439381093318588 H 0.0 **** 0.06
17141 C 74.79370495856061 56.193721121956855 61.02985284154221 C 0.0 **** -0.24
17142 H 73.77484850302285 56.23623350634172 61.41393232336151 H 0.0 **** 0.06
17143 H 75.27665586585498 57.160497510016526 61.173831055155404 H 0.0 **** 0.06
17144 H 74.77229690646536 55.952508407166725 59.966818028511796 H 0.0 **** 0.06
17145 H 75.35236285601589 55.4252295702197 61.56468737926053 H 0.0 **** 0.06
17146 C 87.44069773447774 61.04467308986679 47.520680413546174 C 0.0 **** -0.24
17147 H 87.43864535999296 61.58064021936296 46.570946269411984 H 0.0 **** 0.06
17148 H 87.57452885841076 61.75458218957189 48.33713505555142 H 0.0 **** 0.06
17149 H 88.25791216497572 60.32308904036988 47.52829100689735 H 0.0 **** 0.06
17150 H 86.49248228791464 60.521787977861734 47.64381639176974 H 0.0 **** 0.06
17151 C 69.9398925781353 51.553425452605694 13.639228370505066 C 0.0 **** -0.24
17152 H 70.11243988422831 50.64804662836849 13.058363140927156 H 0.0 **** 0.06
17153 H 70.69037569579126 51.62904918156329 14.426580288603859 H 0.0 **** 0.06
17154 H 68.9460557070044 51.51461549926739 14.085957548242177 H 0.0 **** 0.06
17155 H 70.01004864924562 52.42324364071561 12.985930338496146 H 0.0 **** 0.06
17156 C 81.34820042777599 54.05934616870912 103.2575761931285 C 0.0 **** -0.24
17157 H 80.77063351023521 54.623252213372794 102.52524410926654 H 0.0 **** 0.06
17158 H 80.80470052506533 53.15564771503927 103.53235755609012 H 0.0 **** 0.06
17159 H 81.50714848599779 54.673180965883056 104.14483843104165 H 0.0 **** 0.06
17160 H 82.31227505652085 53.78765887432086 102.8270718242095 H 0.0 **** 0.06
17161 C 54.45900829691732 92.90446570643121 69.87018345847281 C 0.0 **** -0.24
17162 H 54.80298707773372 92.91819128419934 70.90382121487039 H 0.0 **** 0.06
17163 H 54.592695094916934 91.90586615178381 69.45490089851262 H 0.0 **** 0.06
17164 H 55.03721212400018 93.62154723893752 69.28623539255273 H 0.0 **** 0.06
17165 H 53.40327146494212 93.17508935877754 69.83479289952231 H 0.0 **** 0.06
17166 C 42.25819192756296 3.5459414947326398 53.996697652676204 C 0.0 **** -0.24
17167 H 42.3887915980103 3.3731830066736297 55.064352104771196 H 0.0 **** 0.06
17168 H 41.56383949915298 4.373260979104963 53.8448058618022 H 0.0 **** 0.06
17169 H 41.857824620250994 2.645298891823751 53.52985522923411 H 0.0 **** 0.06
17170 H 43.220324328860556 3.7911190667212438 53.54825924585957 H 0.0 **** 0.06
17171 C 53.0825012526022 98.06763519709597 12.583100780721008 C 0.0 **** -0.24
17172 H 52.81014237052969 97.14258776290416 12.073998830755006 H 0.0 **** 0.06
17173 H 53.89985002537068 97.87209701461813 13.278029353698127 H 0.0 **** 0.06
17174 H 52.22138617668918 98.44691754467829 13.132473645644115 H 0.0 **** 0.06
17175 H 53.398849025524825 98.80685239061734 11.847127347582298 H 0.0 **** 0.06
17176 C 38.608186065613154 21.379904047499096 61.541224282053065 C 0.0 **** -0.24
17177 H 39.09562164312911 22.23820858390053 62.00178444027034 H 0.0 **** 0.06
17178 H 39.33176842344898 20.831845151511374 60.93665836542414 H 0.0 **** 0.06
17179 H 37.789857010406706 21.72236799556724 60.90713918534564 H 0.0 **** 0.06
17180 H 38.2148841998723 20.725883913320445 62.32026743296487 H 0.0 **** 0.06
17181 C 28.143539731347857 21.642852401736377 74.67124007268274 C 0.0 **** -0.24
17182 H 28.799427250886154 21.3087579923245 75.47653471432858 H 0.0 **** 0.06
17183 H 28.36612241427418 21.07987091269672 73.76476466768247 H 0.0 **** 0.06
17184 H 28.306696202397028 22.70489500062206 74.48843323196064 H 0.0 **** 0.06
17185 H 27.105105190793747 21.4776449625121 74.95716494949534 H 0.0 **** 0.06
17186 C 76.23393773124657 102.66713584194207 58.95427323581737 C 0.0 **** -0.24
17187 H 76.1345795236732 103.38623027735292 58.14036963737527 H 0.0 **** 0.06
17188 H 75.28112804415089 102.57663754180575 59.47683296526901 H 0.0 **** 0.06
17189 H 76.99965433834424 103.00987015029236 59.64980979699902 H 0.0 **** 0.06
17190 H 76.51949048279873 101.69630122591937 58.54785633920858 H 0.0 **** 0.06
17191 C 29.802915743214186 45.61019871589222 83.40328212245426 C 0.0 **** -0.24
17192 H 29.321081471346247 45.49184309530865 84.37417067386684 H 0.0 **** 0.06
17193 H 30.324999932795834 46.56604432073738 83.3721036594963 H 0.0 **** 0.06
17194 H 29.046675273407686 45.58222677545455 82.6184013567999 H 0.0 **** 0.06
17195 H 30.51562479357949 44.79967032297673 83.25073573272697 H 0.0 **** 0.06
17196 C 19.609496954289398 67.62860354396491 50.65973935526091 C 0.0 **** -0.24
17197 H 19.22532986254714 66.64230293702752 50.39947867435953 H 0.0 **** 0.06
17198 H 18.84823086776055 68.38010555078279 50.453258160507374 H 0.0 **** 0.06
17199 H 20.49910265986793 67.838942962607 50.06579415894572 H 0.0 **** 0.06
17200 H 19.86594588854885 67.65025267859852 51.71803516900465 H 0.0 **** 0.06
17201 C 9.84885847658436 68.03959668435425 102.65827594704876 C 0.0 **** -0.24
17202 H 9.14631650940657 67.44511753626932 102.07524496125751 H 0.0 **** 0.06
17203 H 10.58468470707701 67.38086456093902 103.12155200415913 H 0.0 **** 0.06
17204 H 9.308756599140725 68.58295214851671 103.43346860265248 H 0.0 **** 0.06
17205 H 10.356554024083497 68.74857406876794 102.00351475930228 H 0.0 **** 0.06
17206 C 49.84257218176927 58.68302292985547 62.12461253592579 C 0.0 **** -0.24
17207 H 49.62011302672914 58.32435474920962 63.12966424188872 H 0.0 **** 0.06
17208 H 50.58306873769601 59.480436906971676 62.17997156218064 H 0.0 **** 0.06
17209 H 48.93088819697826 59.06375135798294 61.664019388543196 H 0.0 **** 0.06
17210 H 50.23660627920992 57.861860630968934 61.524814625804964 H 0.0 **** 0.06
17211 C 32.523085234878636 11.161235421838413 108.7837923485987 C 0.0 **** -0.24
17212 H 32.28800669924425 10.960254810118258 109.82911992985078 H 0.0 **** 0.06
17213 H 33.461306949507446 10.670530085045826 108.52224270278475 H 0.0 **** 0.06
17214 H 32.62034197555204 12.235533554415753 108.63267839077076 H 0.0 **** 0.06
17215 H 31.723532511221038 10.776324919270834 108.1511113928442 H 0.0 **** 0.06
17216 C 4.387573350418236 86.54453222086985 3.051498169172504 C 0.0 **** -0.24
17217 H 4.322157384661139 86.50110146130243 1.9643029766376117 H 0.0 **** 0.06
17218 H 3.4919078519355935 86.10013011736493 3.486572867380147 H 0.0 **** 0.06
17219 H 4.469112191615068 87.58393466850737 3.37014351163333 H 0.0 **** 0.06
17220 H 5.266151174620134 85.99279176289267 3.3847732834920947 H 0.0 **** 0.06
17221 C 42.93854668781783 1.9369362062456617 62.156233156086984 C 0.0 **** -0.24
17222 H 43.409645019371744 1.4685903621109162 61.29200899609708 H 0.0 **** 0.06
17223 H 43.2038252304618 1.3842310691400428 63.058346378981696 H 0.0 **** 0.06
17224 H 41.85578139173189 1.9271131514174442 62.02947469903248 H 0.0 **** 0.06
17225 H 43.284369694071906 2.966901004308113 62.24602650397068 H 0.0 **** 0.06
17226 C 62.966474711121066 4.609537183760494 46.80963936653314 C 0.0 **** -0.24
17227 H 63.06835986034605 5.661090943422437 46.542046480107274 H 0.0 **** 0.06
17228 H 61.92628353778498 4.304828530550424 46.6944533282463 H 0.0 **** 0.06
17229 H 63.274595749283904 4.466587261110249 47.845033288992944 H 0.0 **** 0.06
17230 H 63.59665969706958 4.005641999958868 46.1570243687862 H 0.0 **** 0.06
17231 C 41.382678479673956 70.56749598579424 25.77848127541452 C 0.0 **** -0.24
17232 H 42.0572197934039 71.34152781015145 26.142670165976995 H 0.0 **** 0.06
17233 H 41.3372682337949 69.7539999907152 26.502350756145546 H 0.0 **** 0.06
17234 H 41.74993132356978 70.18548605953156 24.825176653476547 H 0.0 **** 0.06
17235 H 40.38666057150283 70.98775594906667 25.64100863536089 H 0.0 **** 0.06
17236 C 0.0864722444008974 41.98359824504329 52.01946010130746 C 0.0 **** -0.24
17237 H -0.9491540407594758 41.89759522015528 51.68948195767386 H 0.0 **** 0.06
17238 H 0.12149021265620163 41.98440428022569 53.108886075946295 H 0.0 **** 0.06
17239 H 0.5117542352039157 42.91365384196759 51.64034039402716 H 0.0 **** 0.06
17240 H 0.660127875526916 41.139709934186556 51.63683681981375 H 0.0 **** 0.06
17241 C 25.54132408907293 60.25730464547122 86.1362764612195 C 0.0 **** -0.24
17242 H 25.75533885477384 59.43901309222298 85.44909566011148 H 0.0 **** 0.06
17243 H 25.653624323306587 61.208540735793704 85.61585025971186 H 0.0 **** 0.06
17244 H 26.236680923903776 60.21764365802815 86.97567196976274 H 0.0 **** 0.06
17245 H 24.520930396706092 60.16330923159211 86.50645261775173 H 0.0 **** 0.06
17246 C 58.73214056775338 98.88286424433032 14.155160741309203 C 0.0 **** -0.24
17247 H 58.37334438378319 99.49191538015278 14.984462159240167 H 0.0 **** 0.06
17248 H 59.82246817428657 98.85233837169206 14.173100703418413 H 0.0 **** 0.06
17249 H 58.39609364481232 99.31573516109063 13.213316772126745 H 0.0 **** 0.06
17250 H 58.33895260938865 97.87070320457184 14.251535711234027 H 0.0 **** 0.06
17251 C 30.49065573996276 13.240817169832496 102.57571171301657 C 0.0 **** -0.24
17252 H 30.405541671703702 13.151207821763649 103.65908130190684 H 0.0 **** 0.06
17253 H 30.284570434908517 12.275751527530701 102.11372689256808 H 0.0 **** 0.06
17254 H 31.49939192077892 13.560588999213564 102.31661694265782 H 0.0 **** 0.06
17255 H 29.772373146046505 13.97800374829842 102.21547848490553 H 0.0 **** 0.06
17256 C 35.5682193681147 47.015300362847825 21.97721634350947 C 0.0 **** -0.24
17257 H 35.44325695017719 46.62821184912991 20.9659207668264 H 0.0 **** 0.06
17258 H 36.26763416421899 47.85148317445538 21.962178491869494 H 0.0 **** 0.06
17259 H 35.957418636200046 46.22709383108196 22.62236307008712 H 0.0 **** 0.06
17260 H 34.60539082972267 47.354272201393144 22.35895334712501 H 0.0 **** 0.06
17261 C 15.653298116262519 75.74839495735449 7.970567669951862 C 0.0 **** -0.24
17262 H 15.979023393397412 74.72872320954417 7.766343759110754 H 0.0 **** 0.06
17263 H 15.616184143441302 76.31213723036342 7.03729109288723 H 0.0 **** 0.06
17264 H 16.35428558944548 76.22368072780179 8.655284227222623 H 0.0 **** 0.06
17265 H 14.661260159137967 75.72835590948591 8.421743900968636 H 0.0 **** 0.06
17266 C 40.77206978431936 29.539713394793978 50.488718254016305 C 0.0 **** -0.24
17267 H 41.440446233522195 28.95049138533099 51.115665742309886 H 0.0 **** 0.06
17268 H 41.24363661541033 30.49348511544568 50.252110796655415 H 0.0 **** 0.06
17269 H 39.83789887125219 29.718752898023695 51.02249864102899 H 0.0 **** 0.06
17270 H 40.565670037412396 28.996209366644777 49.566742453931624 H 0.0 **** 0.06
17271 C 3.685723384739049 105.4920549317029 97.69001288639203 C 0.0 **** -0.24
17272 H 3.4340965930177845 104.70987052531186 96.97378640284552 H 0.0 **** 0.06
17273 H 2.8528077708078854 106.19118207897763 97.77209048922026 H 0.0 **** 0.06
17274 H 4.574824990734498 106.02336432142921 97.34977539249951 H 0.0 **** 0.06
17275 H 3.8811641843958 105.04380280109287 98.66439926100287 H 0.0 **** 0.06
17276 C 49.228219162274364 109.02570312391774 85.58430157755619 C 0.0 **** -0.24
17277 H 49.25181301129528 109.8863653354293 84.91628531763507 H 0.0 **** 0.06
17278 H 48.22034145892744 108.61047136854197 85.60738881910531 H 0.0 **** 0.06
17279 H 49.51637002869979 109.33671715912837 86.58884338812705 H 0.0 **** 0.06
17280 H 49.9252213814959 108.26818121403988 85.2249781040601 H 0.0 **** 0.06
17281 C 17.132321015178434 53.75859994144194 80.23503646498176 C 0.0 **** -0.24
17282 H 17.899515092526542 54.16238158542515 79.57444696297821 H 0.0 **** 0.06
17283 H 16.162672842194638 53.811171835384854 79.74087006151746 H 0.0 **** 0.06
17284 H 17.10314795357658 54.34079103823089 81.15693472480936 H 0.0 **** 0.06
17285 H 17.36585457397723 52.719962922920985 80.46942949187641 H 0.0 **** 0.06
17286 C 86.9061743861983 1.5948010186489086 26.985392216337516 C 0.0 **** -0.24
17287 H 87.80649010423076 1.9224542385601495 27.504653048330113 H 0.0 **** 0.06
17288 H 86.04989753835036 1.6770280637460928 27.654887952582897 H 0.0 **** 0.06
17289 H 87.02517525321451 0.557997370777116 26.672283918722542 H 0.0 **** 0.06
17290 H 86.74406126251131 2.223162921321304 26.109475251103447 H 0.0 **** 0.06
17291 C 57.94585081617328 6.929215147625836 20.896346268197867 C 0.0 **** -0.24
17292 H 58.09861761336816 5.923863243469777 21.287610464121876 H 0.0 **** 0.06
17293 H 57.216237236962456 6.896371952905712 20.086474505142434 H 0.0 **** 0.06
17294 H 58.89103144021834 7.319470475260854 20.518688698637803 H 0.0 **** 0.06
17295 H 57.57799169670824 7.5769683494430495 21.69129234104288 H 0.0 **** 0.06
17296 C 32.313531101866964 1.1565254063168737 49.22361588096917 C 0.0 **** -0.24
17297 H 31.425968476254972 1.2663603733219588 48.60111793644435 H 0.0 **** 0.06
17298 H 32.761548883705665 0.1783140206907632 49.04877189408736 H 0.0 **** 0.06
17299 H 32.03455865959663 1.2472837872574445 50.27368453873332 H 0.0 **** 0.06
17300 H 33.033571776516965 1.935776428861132 48.9707755970442 H 0.0 **** 0.06
17301 C 97.99336022330505 59.1141576701521 104.93435315251219 C 0.0 **** -0.24
17302 H 97.6236630221532 58.09867593261595 105.07583697962144 H 0.0 **** 0.06
17303 H 98.31035415894841 59.24423648449965 103.90007119738254 H 0.0 **** 0.06
17304 H 98.84048279820006 59.287913264704414 105.59921275135497 H 0.0 **** 0.06
17305 H 97.19979352569375 59.82460222618808 105.1639729428129 H 0.0 **** 0.06
17306 C 104.19172857604318 52.836607067393345 35.93562335218641 C 0.0 **** -0.24
17307 H 104.38179330733279 53.56160595822374 36.72709215948913 H 0.0 **** 0.06
17308 H 103.83490618562739 51.90447961431747 36.37480566505138 H 0.0 **** 0.06
17309 H 105.11377813458434 52.65009159120555 35.38481806506218 H 0.0 **** 0.06
17310 H 103.43587921567138 53.23143829670232 35.25524844996204 H 0.0 **** 0.06
17311 C 60.30621446767556 11.409431714788411 97.7615981111546 C 0.0 **** -0.24
17312 H 59.31921875046024 11.248730215657545 98.19608790231622 H 0.0 **** 0.06
17313 H 61.02611306898737 10.744866435344406 98.23901914452944 H 0.0 **** 0.06
17314 H 60.60774300890239 12.445093548219916 97.91941124322544 H 0.0 **** 0.06
17315 H 60.271056784946666 11.200061984068867 96.69306638323127 H 0.0 **** 0.06
17316 C 38.86024885383583 104.30465650928197 52.15112617668626 C 0.0 **** -0.24
17317 H 39.18826314357335 104.88710469677342 53.01185527326675 H 0.0 **** 0.06
17318 H 39.63886162323422 103.59374995169475 51.87505033162614 H 0.0 **** 0.06
17319 H 38.66454155684096 104.9738421057214 51.31274070492378 H 0.0 **** 0.06
17320 H 37.94777607427733 103.76376725853034 52.40410870790535 H 0.0 **** 0.06
17321 C 95.2721946678069 103.65026823153374 9.776567380198287 C 0.0 **** -0.24
17322 H 94.51797682843164 104.36439643565598 10.10613860071851 H 0.0 **** 0.06
17323 H 95.15884669488071 102.71946261895539 10.33326304588752 H 0.0 **** 0.06
17324 H 96.26508887949984 104.06261144697146 9.954325611396087 H 0.0 **** 0.06
17325 H 95.14485663717886 103.45421833678284 8.711639984225656 H 0.0 **** 0.06
17326 C 51.552228075614494 95.02726337454611 28.40628062632129 C 0.0 **** -0.24
17327 H 50.99468192206524 94.20453214124181 27.957000600301797 H 0.0 **** 0.06
17328 H 51.2246283372815 95.16749784000723 29.436166807991327 H 0.0 **** 0.06
17329 H 51.37192995440813 95.94025465302607 27.839466425365316 H 0.0 **** 0.06
17330 H 52.61714525331092 94.79332137041504 28.391132970064803 H 0.0 **** 0.06
17331 C 83.00544377244135 108.81546057356833 80.29238132110711 C 0.0 **** -0.24
17332 H 82.61856715823794 108.82921472307287 79.27368551401895 H 0.0 **** 0.06
17333 H 84.02250827804346 109.20765567589247 80.30130696443467 H 0.0 **** 0.06
17334 H 83.0070275103092 107.79157132766602 80.66568032657032 H 0.0 **** 0.06
17335 H 82.37247939757462 109.43325873320592 80.92959903149159 H 0.0 **** 0.06
17336 C 44.58764512578267 65.2113884144729 79.5858220848479 C 0.0 **** -0.24
17337 H 44.3276604058602 64.67630014172948 80.49856207782238 H 0.0 **** 0.06
17338 H 45.66195447986718 65.40030964604972 79.56835371023175 H 0.0 **** 0.06
17339 H 44.05148701224951 66.16040346622427 79.55594205742253 H 0.0 **** 0.06
17340 H 44.310151635763845 64.60972191509674 78.72004170071065 H 0.0 **** 0.06
17341 C 67.58652637615546 63.500308311125195 75.99298761694149 C 0.0 **** -0.24
17342 H 66.82779423404762 62.72042957026764 76.05250665588079 H 0.0 **** 0.06
17343 H 67.21893232458791 64.31638948500245 75.370957882222 H 0.0 **** 0.06
17344 H 68.49567347403416 63.090316614960216 75.55352634419293 H 0.0 **** 0.06
17345 H 67.80261698380258 63.87517316496445 76.99332908065935 H 0.0 **** 0.06
17346 C 89.23364718135662 75.60703181439033 98.14320698759117 C 0.0 **** -0.24
17347 H 89.43734230724742 75.31106853151584 97.11361340464032 H 0.0 **** 0.06
17348 H 90.10194659990707 76.12451311354334 98.5510023828636 H 0.0 **** 0.06
17349 H 89.02505389244001 74.71968967098186 98.7415652951118 H 0.0 **** 0.06
17350 H 88.36962841155594 76.27203689215293 98.1656732490632 H 0.0 **** 0.06
17351 C 34.00084492709428 81.54058380704419 92.80000470396836 C 0.0 **** -0.24
17352 H 33.43247132978999 80.6176332891635 92.91704607555398 H 0.0 **** 0.06
17353 H 34.574530950330654 81.73180439065965 93.70706419214599 H 0.0 **** 0.06
17354 H 33.314994004726245 82.36899751527699 92.62293664010772 H 0.0 **** 0.06
17355 H 34.68058986054501 81.44450502203162 91.9529063664802 H 0.0 **** 0.06
17356 C 53.812233947072706 108.10060385782876 65.57249212585141 C 0.0 **** -0.24
17357 H 54.28990552378998 107.51210866560908 64.78895708975875 H 0.0 **** 0.06
17358 H 53.77203432049698 109.14630062130671 65.26624521407958 H 0.0 **** 0.06
17359 H 54.38847266454956 108.0132372519449 66.49320046434987 H 0.0 **** 0.06
17360 H 52.80107221511279 107.73019756060944 65.7395219514851 H 0.0 **** 0.06
17361 C 5.265320234971114 12.411988494369439 0.9987854206990789 C 0.0 **** -0.24
17362 H 4.951086782457651 11.74057965963084 1.7973937965102493 H 0.0 **** 0.06
17363 H 4.49155317055056 13.160837180266213 0.828429736284221 H 0.0 **** 0.06
17364 H 5.423940722329121 11.83910523239527 0.08441282794179017 H 0.0 **** 0.06
17365 H 6.19396412225808 12.905201612273032 1.28332916076522 H 0.0 **** 0.06
17366 C 13.843625653275666 17.969174721115678 61.64376623252397 C 0.0 **** -0.24
17367 H 13.338654292084357 17.807600124111786 62.59481739485099 H 0.0 **** 0.06
17368 H 14.79574340934488 18.470440022324794 61.817503774917014 H 0.0 **** 0.06
17369 H 13.218031284062334 18.58960338307162 61.001225279508176 H 0.0 **** 0.06
17370 H 14.021418676271509 17.00890386820339 61.159385797477256 H 0.0 **** 0.06
17371 C 93.10153427302943 20.36266807288689 94.20733604605051 C 0.0 **** -0.24
17372 H 92.64095891801684 20.292230510890874 93.22180584948232 H 0.0 **** 0.06
17373 H 92.32446959189812 20.460812582514905 94.96568360635096 H 0.0 **** 0.06
17374 H 93.75514287115512 21.23366994559217 94.24103094339607 H 0.0 **** 0.06
17375 H 93.68533597087381 19.46202514075918 94.40036922010258 H 0.0 **** 0.06
17376 C 20.88513924788174 17.973835720689905 31.071865217445634 C 0.0 **** -0.24
17377 H 20.31862705624519 18.90035080473652 30.980090582861152 H 0.0 **** 0.06
17378 H 20.2142476897061 17.164338661612476 31.359032205676442 H 0.0 **** 0.06
17379 H 21.656959667982164 18.093842954098108 31.83115389332201 H 0.0 **** 0.06
17380 H 21.350138227140064 17.737507314577826 30.11432527599942 H 0.0 **** 0.06
17381 C 47.04778374087766 27.179154920640414 5.232307511335023 C 0.0 **** -0.24
17382 H 47.50297849105715 27.73382326581099 6.052359090211979 H 0.0 **** 0.06
17383 H 46.19374670264426 26.613588162184293 5.606077339331762 H 0.0 **** 0.06
17384 H 47.77967629039978 26.49343795591384 4.805980899329228 H 0.0 **** 0.06
17385 H 46.71241184874944 27.87622190723222 4.464175238586932 H 0.0 **** 0.06
17386 C 42.809642199000706 31.44713748356564 41.2426863001034 C 0.0 **** -0.24
17387 H 43.30008525216607 31.369719912578702 42.212121654809664 H 0.0 **** 0.06
17388 H 43.289650194828965 32.22908522872113 40.65352507119792 H 0.0 **** 0.06
17389 H 41.75745719955131 31.694222817156096 41.38640290558067 H 0.0 **** 0.06
17390 H 42.89065104848993 30.495870977346335 40.71753258748117 H 0.0 **** 0.06
17391 C 75.4096405057395 60.4623747534568 8.911141092480236 C 0.0 **** -0.24
17392 H 74.46104414519613 60.27551289959399 9.41595544386142 H 0.0 **** 0.06
17393 H 75.64930119008793 59.617536633778116 8.26471459357775 H 0.0 **** 0.06
17394 H 76.19746849674527 60.58716578731509 9.654219912738427 H 0.0 **** 0.06
17395 H 75.32929225316286 61.36830008241736 8.311057533224428 H 0.0 **** 0.06
17396 C 58.12315032762598 64.09071077986259 2.0217001982495617 C 0.0 **** -0.24
17397 H 58.04837789921356 64.17994258689907 0.937866429101831 H 0.0 **** 0.06
17398 H 59.17329192191863 64.10297248350425 2.3149325072348006 H 0.0 **** 0.06
17399 H 57.66660877212155 63.15432492425434 2.3409667876887568 H 0.0 **** 0.06
17400 H 57.60447836034007 64.92666943169274 2.491075729146729 H 0.0 **** 0.06
17401 C 25.971169071504796 92.46673876928787 97.36831755311546 C 0.0 **** -0.24
17402 H 26.476052970698756 92.54154902545264 96.4044770029584 H 0.0 **** 0.06
17403 H 25.41635131142745 93.38478133029467 97.55850669035858 H 0.0 **** 0.06
17404 H 26.712222493232826 92.31990801362545 98.15551735789421 H 0.0 **** 0.06
17405 H 25.28412365863533 91.62168459860602 97.35355860476541 H 0.0 **** 0.06
17406 C 15.457257418132073 28.1408068875985 8.195434111404708 C 0.0 **** -0.24
17407 H 15.620091044930817 28.89125726843143 8.968801607252686 H 0.0 **** 0.06
17408 H 14.399568635900707 28.108978362070886 7.937470631162142 H 0.0 **** 0.06
17409 H 15.77216099043315 27.164867165510444 8.565333123901553 H 0.0 **** 0.06
17410 H 16.040165766031862 28.398922966348735 7.311404246595515 H 0.0 **** 0.06
17411 C 64.5978336943079 11.116379376884993 105.21306937332707 C 0.0 **** -0.24
17412 H 64.27127545098334 10.310225981275181 105.86919224764495 H 0.0 **** 0.06
17413 H 63.9356886129534 11.171251000819325 104.3484423408704 H 0.0 **** 0.06
17414 H 65.61671269211877 10.922715864625104 104.87922982510526 H 0.0 **** 0.06
17415 H 64.56602682466698 12.061366658714888 105.75599409841823 H 0.0 **** 0.06
17416 C 64.18456462440543 42.964075646309524 34.414397869136366 C 0.0 **** -0.24
17417 H 63.24836993198048 43.221354805486996 34.909707660713394 H 0.0 **** 0.06
17418 H 64.66083061574915 42.139001594363585 34.94343127586973 H 0.0 **** 0.06
17419 H 64.84789580771039 43.83004582077358 34.41962783671289 H 0.0 **** 0.06
17420 H 63.982364629717296 42.66797653151319 33.3853185169923 H 0.0 **** 0.06
17421 C 9.052338128654938 15.774061794489853 40.06122445745893 C 0.0 **** -0.24
17422 H 8.728912476242485 16.155033590718574 39.09202414264225 H 0.0 **** 0.06
17423 H 8.880211493090243 14.698364222454018 40.10389812066488 H 0.0 **** 0.06
17424 H 8.48503403372598 16.26500984382858 40.85163758740905 H 0.0 **** 0.06
17425 H 10.11456336434344 15.978954602571093 40.19550535970496 H 0.0 **** 0.06
17426 C 26.408940736710377 14.327086970841634 12.856045526246561 C 0.0 **** -0.24
17427 H 27.395707971033545 14.11248154606173 12.44686127021805 H 0.0 **** 0.06
17428 H 25.735075642020263 13.50084561006912 12.629288132832528 H 0.0 **** 0.06
17429 H 26.02326293396544 15.244120518159946 12.410796201616023 H 0.0 **** 0.06
17430 H 26.482497217718844 14.450738888111289 13.936068425813545 H 0.0 **** 0.06
17431 C 64.39037205331564 17.27012473218641 24.23164094279113 C 0.0 **** -0.24
17432 H 63.384438147246044 17.08092315341688 23.8570897488122 H 0.0 **** 0.06
17433 H 65.05030352992063 17.507957409924053 23.396702633040718 H 0.0 **** 0.06
17434 H 64.75985166802917 16.381768569576554 24.745025850185243 H 0.0 **** 0.06
17435 H 64.36703359059385 18.108443536868073 24.92768817284005 H 0.0 **** 0.06
17436 C 102.35827348714216 35.08716457410526 2.483383926595053 C 0.0 **** -0.24
17437 H 102.47844872960982 34.232509724534566 3.1494941923816384 H 0.0 **** 0.06
17438 H 101.86703113362475 35.89907892963362 3.0207636360219965 H 0.0 **** 0.06
17439 H 101.74930337884788 34.79772014650058 1.626569929226065 H 0.0 **** 0.06
17440 H 103.3371542675319 35.419614750044644 2.1374776163396803 H 0.0 **** 0.06
17441 C 68.23966887073678 28.186499673786614 72.8740992673169 C 0.0 **** -0.24
17442 H 68.27482683009082 27.401640661445327 72.11846501853275 H 0.0 **** 0.06
17443 H 67.50084645474097 28.934438318151365 72.58714794581789 H 0.0 **** 0.06
17444 H 69.22010809590134 28.655765573839204 72.95600963308812 H 0.0 **** 0.06
17445 H 67.96326090061447 27.752793572070487 73.83489450632514 H 0.0 **** 0.06
17446 C 42.437445667008845 64.06224736300088 14.959134320556558 C 0.0 **** -0.24
17447 H 43.00489277716637 64.91941306172089 14.597595148941508 H 0.0 **** 0.06
17448 H 43.12591016420211 63.300716671600654 15.327198946645964 H 0.0 **** 0.06
17449 H 41.84104511955187 63.65064673789216 14.145164325037456 H 0.0 **** 0.06
17450 H 41.778043767551566 64.37812647717384 15.7679862351185 H 0.0 **** 0.06
17451 C 28.952791306939446 79.7105067160856 17.083946001135956 C 0.0 **** -0.24
17452 H 28.920992428214106 78.62189636060793 17.039345697080975 H 0.0 **** 0.06
17453 H 29.91644345226831 80.02905849173385 17.481516341273107 H 0.0 **** 0.06
17454 H 28.153651814996124 80.07114494768896 17.73205481351853 H 0.0 **** 0.06
17455 H 28.819824059213204 80.11864577849525 16.082324790104025 H 0.0 **** 0.06
17456 C 82.48747717969025 45.75996367509367 57.262994210396926 C 0.0 **** -0.24
17457 H 83.40321740739398 45.834544186855794 57.85029097813492 H 0.0 **** 0.06
17458 H 81.77319548506256 46.50720322761845 57.60907886326959 H 0.0 **** 0.06
17459 H 82.06034417086255 44.76430678796385 57.38119997015917 H 0.0 **** 0.06
17460 H 82.71507619341799 45.93531386338054 56.211328443190325 H 0.0 **** 0.06
17461 C 28.597977891319886 84.98984589905845 25.535043195390983 C 0.0 **** -0.24
17462 H 28.787673074229843 85.63077191518406 26.395528173929563 H 0.0 **** 0.06
17463 H 27.99075834811157 84.13809983991911 25.842895404895216 H 0.0 **** 0.06
17464 H 29.546222457399267 84.63348015838181 25.131638182270706 H 0.0 **** 0.06
17465 H 28.06768690291935 85.55612856878247 24.77012541320937 H 0.0 **** 0.06
17466 C 100.38664764849602 11.159734877814174 96.92176954074782 C 0.0 **** -0.24
17467 H 101.33418440808197 11.682361780479397 96.79347285489774 H 0.0 **** 0.06
17468 H 99.6589504198613 11.834554743260114 97.37264398162466 H 0.0 **** 0.06
17469 H 100.53221552861419 10.296582773406513 97.5705863521822 H 0.0 **** 0.06
17470 H 100.02057101450112 10.827769181021154 95.95001671309214 H 0.0 **** 0.06
17471 C 62.900124553896035 80.10477794688731 47.87433846502412 C 0.0 **** -0.24
17472 H 62.701679724617065 79.83705494910853 48.911961176041046 H 0.0 **** 0.06
17473 H 62.073452744727774 80.70225001951354 47.48885986922082 H 0.0 **** 0.06
17474 H 63.001528443261634 79.19742760273442 47.278270092023476 H 0.0 **** 0.06
17475 H 63.82242386850726 80.68233367399765 47.81824762317017 H 0.0 **** 0.06
17476 C 54.19617437347853 85.9393163623983 62.45086117318783 C 0.0 **** -0.24
17477 H 55.189697362901825 86.35266466337673 62.276138154535204 H 0.0 **** 0.06
17478 H 53.945177783658494 86.03073752899817 63.50786863354941 H 0.0 **** 0.06
17479 H 54.185496404847584 84.88684314122146 62.16455531160244 H 0.0 **** 0.06
17480 H 53.465316478777595 86.48481809322284 61.854470002616665 H 0.0 **** 0.06
17481 C 49.44698218495296 48.6975439909001 72.25821659361 C 0.0 **** -0.24
17482 H 49.4771323728775 49.68533553131806 72.71807276948857 H 0.0 **** 0.06
17483 H 50.46201856674463 48.312995635204175 72.15948686023879 H 0.0 **** 0.06
17484 H 48.98764584184879 48.76966800043229 71.27225608488848 H 0.0 **** 0.06
17485 H 48.861514072414955 48.02381115589128 72.88413834400461 H 0.0 **** 0.06
17486 C 94.09925175046595 32.023163107925654 103.89639461617944 C 0.0 **** -0.24
17487 H 94.20853700497481 31.911235487931265 104.97463380729008 H 0.0 **** 0.06
17488 H 94.1388488706381 33.08103826335895 103.63444014369779 H 0.0 **** 0.06
17489 H 93.14265610767829 31.605668592924076 103.58267666278479 H 0.0 **** 0.06
17490 H 94.90901224887361 31.49414328782089 103.39260806263945 H 0.0 **** 0.06
17491 C 79.97067290694753 103.78879439889957 104.40813429387458 C 0.0 **** -0.24
17492 H 78.89783868705752 103.92250229748421 104.26927537509725 H 0.0 **** 0.06
17493 H 80.14672316229866 103.01137204048446 105.15081160630515 H 0.0 **** 0.06
17494 H 80.41221193418684 104.72542552472727 104.7498510327016 H 0.0 **** 0.06
17495 H 80.426301927346 103.49743657557472 103.46140639658887 H 0.0 **** 0.06
17496 C 15.68356072293895 104.49180227751613 46.015305845045305 C 0.0 **** -0.24
17497 H 16.346556817583988 103.71652926502182 46.399175342718195 H 0.0 **** 0.06
17498 H 15.994500188734804 105.4613304466829 46.40446088034395 H 0.0 **** 0.06
17499 H 14.661127760434965 104.28357443370165 46.32952206635815 H 0.0 **** 0.06
17500 H 15.732989429954387 104.50499781967035 44.925936942732164 H 0.0 **** 0.06
17501 C 74.86814664410363 102.05998825707258 37.490389841921626 C 0.0 **** -0.24
17502 H 75.47354433870916 102.16192379841726 36.589817450908185 H 0.0 **** 0.06
17503 H 74.8618124539014 103.00634277051716 38.03308034044977 H 0.0 **** 0.06
17504 H 75.28888537446815 101.28038988885032 38.12436783839445 H 0.0 **** 0.06
17505 H 73.84813725664522 101.79326326700823 37.213249975336225 H 0.0 **** 0.06
17506 C 92.58556636259243 86.05171301541765 59.132143746665406 C 0.0 **** -0.24
17507 H 93.65048187137805 85.90344272657812 58.94975459401735 H 0.0 **** 0.06
17508 H 92.35575896393522 85.7965801226243 60.16661734553833 H 0.0 **** 0.06
17509 H 92.0106239362988 85.41282063295426 58.46243966950482 H 0.0 **** 0.06
17510 H 92.32878186286081 87.0943681971861 58.949100909679714 H 0.0 **** 0.06
17511 C 56.44091912473513 34.6775786627029 31.374076850042684 C 0.0 **** -0.24
17512 H 57.50000213906844 34.42164042107558 31.340436725405652 H 0.0 **** 0.06
17513 H 55.91013491599708 34.13032787975146 30.5951997378678 H 0.0 **** 0.06
17514 H 56.32107966039675 35.748858125837444 31.21335452855493 H 0.0 **** 0.06
17515 H 56.03437482094958 34.40930973280837 32.34939033425633 H 0.0 **** 0.06
17516 C 107.50905972203364 42.78471047683922 5.381848150701757 C 0.0 **** -0.24
17517 H 107.4740488904864 43.49316655748876 4.554959992472845 H 0.0 **** 0.06
17518 H 106.65356669519714 42.11160740691196 5.319567841491619 H 0.0 **** 0.06
17519 H 107.47604091043725 43.327415263222036 6.326909613686979 H 0.0 **** 0.06
17520 H 108.4312871969452 42.20627742189103 5.326381477074065 H 0.0 **** 0.06
17521 C 4.121561883862256 7.96403334366758 29.960672107519343 C 0.0 **** -0.24
17522 H 4.084349383507444 7.110573029559973 29.283323150855963 H 0.0 **** 0.06
17523 H 4.768032280019497 8.734556627551896 29.5401928861732 H 0.0 **** 0.06
17524 H 4.517385034668251 7.645162978389209 30.925241762230357 H 0.0 **** 0.06
17525 H 3.117269432479347 8.364353469510178 30.095402498428598 H 0.0 **** 0.06
17526 C 40.17303759900679 28.92143347203256 102.7414990279113 C 0.0 **** -0.24
17527 H 39.5068921104872 28.11503826790903 103.05069298257428 H 0.0 **** 0.06
17528 H 39.85936046626563 29.852643728660183 103.21305174822342 H 0.0 **** 0.06
17529 H 40.13097497925608 29.03021571240015 101.65714756788974 H 0.0 **** 0.06
17530 H 41.19273461757368 28.685550690030112 103.04337497922697 H 0.0 **** 0.06
17531 C 85.30922455509865 72.8276518479423 39.189797939248606 C 0.0 **** -0.24
17532 H 86.38696017772216 72.67403383722184 39.143491827958655 H 0.0 **** 0.06
17533 H 84.96489244154854 72.6779763791064 40.21375476448196 H 0.0 **** 0.06
17534 H 84.8123153632893 72.11484795138503 38.53090813429294 H 0.0 **** 0.06
17535 H 85.07268987334977 73.843152777566 38.8718386984213 H 0.0 **** 0.06
17536 C 95.26492988208958 26.002197892464892 12.527946975110893 C 0.0 **** -0.24
17537 H 95.8235942991147 25.35901309440976 11.847990910694648 H 0.0 **** 0.06
17538 H 94.20745011304747 25.980431118205445 12.261603800069793 H 0.0 **** 0.06
17539 H 95.63826295210333 27.022307789012302 12.451083638635708 H 0.0 **** 0.06
17540 H 95.38919152591285 25.645128402289032 13.550183384508628 H 0.0 **** 0.06
17541 C 90.91654731265297 84.18656838470247 98.85931374295035 C 0.0 **** -0.24
17542 H 91.85060928031777 84.35077379796772 99.39663272488417 H 0.0 **** 0.06
17543 H 90.12054989342488 84.7625306988927 99.33028756164106 H 0.0 **** 0.06
17544 H 90.66404934760516 83.12636712915139 98.88691737630597 H 0.0 **** 0.06
17545 H 91.03270857605082 84.50487438498939 97.82359192405988 H 0.0 **** 0.06
17546 C 86.25987356901737 95.09158538431195 48.33739704427836 C 0.0 **** -0.24
17547 H 85.22310487642675 94.75666976102441 48.3704283774307 H 0.0 **** 0.06
17548 H 86.52781694759658 95.53969814245609 49.294204843197974 H 0.0 **** 0.06
17549 H 86.37712904329736 95.82957626338045 47.54448063656642 H 0.0 **** 0.06
17550 H 86.91041058015895 94.23894375466509 48.1391250556118 H 0.0 **** 0.06
17551 C 32.46892709596932 47.287051451136165 46.027902483604834 C 0.0 **** -0.24
17552 H 33.091360655440866 47.2990142133051 46.92246003049649 H 0.0 **** 0.06
17553 H 31.444623360140625 47.546320824540146 46.294544721625286 H 0.0 **** 0.06
17554 H 32.48820261863631 46.291445220933895 45.584707776853854 H 0.0 **** 0.06
17555 H 32.852471640474114 48.01163292935166 45.30887037156843 H 0.0 **** 0.06
17556 C 10.951519997124535 104.1493091958796 35.1025641625848 C 0.0 **** -0.24
17557 H 11.257640770927537 103.36965461596141 34.40474707203046 H 0.0 **** 0.06
17558 H 11.609398723382697 105.01264065628568 34.9945210259132 H 0.0 **** 0.06
17559 H 11.015304032325488 103.76934322459326 36.122316256214305 H 0.0 **** 0.06
17560 H 9.924811842038764 104.4447315195685 34.88836836963324 H 0.0 **** 0.06
17561 C 3.405613406931664 17.80701928699291 31.248352321780573 C 0.0 **** -0.24
17562 H 3.923644609608175 17.92415776311907 30.296399001902117 H 0.0 **** 0.06
17563 H 4.066511205418436 17.316232822495678 31.96314714104753 H 0.0 **** 0.06
17564 H 2.5125058011783494 17.198230665814663 31.102818308195054 H 0.0 **** 0.06
17565 H 3.1201074455650684 18.786634446508998 31.63007511076276 H 0.0 **** 0.06
17566 C 96.61170759567085 63.0488837426326 79.62402399049819 C 0.0 **** -0.24
17567 H 95.64342266601221 63.51661647626915 79.44672979325577 H 0.0 **** 0.06
17568 H 97.39576720148102 63.65353395542246 79.16899049329649 H 0.0 **** 0.06
17569 H 96.61886211593622 62.05251319002028 79.18187084046411 H 0.0 **** 0.06
17570 H 96.78768144972581 62.97192922654568 80.69652761353333 H 0.0 **** 0.06
17571 C 1.5533971019993933 24.279120562174228 65.35045331248435 C 0.0 **** -0.24
17572 H 1.9740009637409832 23.365113495399044 65.77121975488626 H 0.0 **** 0.06
17573 H 2.129428456757892 25.137011779468878 65.69659544550083 H 0.0 **** 0.06
17574 H 0.5172838022282118 24.382358087765795 65.672051015318 H 0.0 **** 0.06
17575 H 1.5934330550124765 24.22905798588357 64.26214786600693 H 0.0 **** 0.06
17576 C 45.35564404407404 57.73699230041848 92.51430077741325 C 0.0 **** -0.24
17577 H 44.660578638956196 57.80433113374011 93.35069923711295 H 0.0 **** 0.06
17578 H 44.795039173523804 57.66696051063559 91.58152553770475 H 0.0 **** 0.06
17579 H 45.97965547013996 56.85010938156486 92.63094709678914 H 0.0 **** 0.06
17580 H 45.98678388850868 58.62497718613773 92.49358454533042 H 0.0 **** 0.06
17581 C 104.33910670118361 48.935077295689126 51.30651282088127 C 0.0 **** -0.24
17582 H 104.38372508087537 49.331323405570544 50.29215091531029 H 0.0 **** 0.06
17583 H 104.15953828954048 49.74983905849163 52.00780470612514 H 0.0 **** 0.06
17584 H 105.28472542291867 48.44963536104723 51.548321082309826 H 0.0 **** 0.06
17585 H 103.52998808784345 48.20873859514677 51.37775877547398 H 0.0 **** 0.06
17586 C 106.52165722048755 82.87652278219693 6.347907277530396 C 0.0 **** -0.24
17587 H 106.10485359207993 82.71654738459002 5.353577620827707 H 0.0 **** 0.06
17588 H 106.71375965918071 83.93867013840745 6.494619359107787 H 0.0 **** 0.06
17589 H 107.45497775245829 82.32034889333386 6.44354892999047 H 0.0 **** 0.06
17590 H 105.81283389832791 82.52728936175652 7.098304738238312 H 0.0 **** 0.06
17591 C 54.88081351048146 73.92208912854062 91.21782346903814 C 0.0 **** -0.24
17592 H 54.768241433214826 72.90877595238516 91.60192338259664 H 0.0 **** 0.06
17593 H 53.919060363856545 74.27857377110621 90.84657485184528 H 0.0 **** 0.06
17594 H 55.60741613844732 73.92377061487758 90.40512200257916 H 0.0 **** 0.06
17595 H 55.2280041242858 74.57676386193845 92.01645134058461 H 0.0 **** 0.06
17596 C 98.52604632246165 99.4173592332346 98.1968139112246 C 0.0 **** -0.24
17597 H 99.52468459547138 99.16023634895214 97.84422595640092 H 0.0 **** 0.06
17598 H 98.31793306100303 98.87700123225875 99.1209183545686 H 0.0 **** 0.06
17599 H 97.79087071676052 99.14156973968193 97.4415611123216 H 0.0 **** 0.06
17600 H 98.47219221606726 100.49006893781484 98.38327973061223 H 0.0 **** 0.06
17601 C 62.621866654002844 55.41006472692098 35.53139208578865 C 0.0 **** -0.24
17602 H 63.513228595573764 55.36884027161585 34.90566428569721 H 0.0 **** 0.06
17603 H 62.706247971669654 56.2439891306455 36.22885161141926 H 0.0 **** 0.06
17604 H 62.525930506654106 54.478419671735594 36.088241767270546 H 0.0 **** 0.06
17605 H 61.74270022754905 55.5492129471387 34.90207019470553 H 0.0 **** 0.06
17606 C 4.0401938188773805 38.843451244964285 88.36866894870775 C 0.0 **** -0.24
17607 H 3.488183982337441 39.21234494940626 89.23251580164111 H 0.0 **** 0.06
17608 H 3.350639904180822 38.36072009642538 87.67613454447229 H 0.0 **** 0.06
17609 H 4.788921214002711 38.123093527034484 88.69747114665779 H 0.0 **** 0.06
17610 H 4.53343423874723 39.677847938226705 87.86989453216404 H 0.0 **** 0.06
17611 C 91.19162212577697 94.15918487034284 53.89966836956023 C 0.0 **** -0.24
17612 H 90.83794604633243 93.69363687552422 54.81902853091049 H 0.0 **** 0.06
17613 H 91.12401764145633 95.2429823489501 53.99245580002338 H 0.0 **** 0.06
17614 H 90.57602838671386 93.82570205691724 53.06448251895142 H 0.0 **** 0.06
17615 H 92.22928812287877 93.87327216767461 53.72373618106036 H 0.0 **** 0.06
17616 C 2.143671253570645 1.0990918869690915 95.90591937352636 C 0.0 **** -0.24
17617 H 2.194311192627495 1.596299527980193 96.87455966729765 H 0.0 **** 0.06
17618 H 1.1303883081873067 0.7331970801630234 95.73870528910626 H 0.0 **** 0.06
17619 H 2.8405184908218644 0.26159575092211185 95.88954952867964 H 0.0 **** 0.06
17620 H 2.4084012648651765 1.8072406428296688 95.12082561134234 H 0.0 **** 0.06
17621 C 41.135304001035365 31.514728102246778 18.655723629939104 C 0.0 **** -0.24
17622 H 40.712915355698165 30.74311435407614 19.298733643550975 H 0.0 **** 0.06
17623 H 40.44019812064986 32.3509255879344 18.585799364104673 H 0.0 **** 0.06
17624 H 41.310637889815304 31.102958213571412 17.66229300584685 H 0.0 **** 0.06
17625 H 42.079081975600026 31.860660027300696 19.077414401188037 H 0.0 **** 0.06
17626 C 2.9701143778352446 50.25965843455487 81.32136946523138 C 0.0 **** -0.24
17627 H 2.8537286898006187 49.39349464777444 81.97286968482308 H 0.0 **** 0.06
17628 H 3.9046946722956193 50.172569874705395 80.76652429971489 H 0.0 **** 0.06
17629 H 2.986880804203736 51.16762110809737 81.9238007964857 H 0.0 **** 0.06
17630 H 2.1354659756715364 50.30306904211719 80.62167351200043 H 0.0 **** 0.06
17631 C 76.83965263047173 75.61532805335253 30.38903294395667 C 0.0 **** -0.24
17632 H 76.62170189165484 74.83917287859049 29.654727466600477 H 0.0 **** 0.06
17633 H 77.90809185446074 75.83326274080457 30.379082455614068 H 0.0 **** 0.06
17634 H 76.54722158091688 75.27073777937187 31.37980959809432 H 0.0 **** 0.06
17635 H 76.2824342061707 76.51777450467097 30.138491785328675 H 0.0 **** 0.06
17636 C 9.557519235849242 100.3552302486737 2.530150701234504 C 0.0 **** -0.24
17637 H 9.741819673392229 99.73196577550038 1.6565017506287063 H 0.0 **** 0.06
17638 H 10.084695037980467 101.30299286960076 2.4180811588278885 H 0.0 **** 0.06
17639 H 9.915248106113978 99.84373333027122 3.4241757901942975 H 0.0 **** 0.06
17640 H 8.487580236932274 100.54263187799432 2.6233604365500582 H 0.0 **** 0.06
17641 C 79.0988963957186 52.45325438783213 41.24025360255223 C 0.0 **** -0.24
17642 H 78.99904768991269 51.87392346082204 42.15794568542384 H 0.0 **** 0.06
17643 H 78.33324594401047 52.141946406682706 40.529474732746564 H 0.0 **** 0.06
17644 H 80.08579348321146 52.28365260340065 40.80965954930042 H 0.0 **** 0.06
17645 H 78.97799859755557 53.51313096810653 41.46472015256637 H 0.0 **** 0.06
17646 C 51.52584527538609 94.88778756868034 40.9012325188684 C 0.0 **** -0.24
17647 H 51.70853862134517 93.81572567810295 40.970797446962194 H 0.0 **** 0.06
17648 H 50.778537365046326 95.0798515810847 40.13195225887668 H 0.0 **** 0.06
17649 H 52.45381299999182 95.39864918656632 40.64222435950536 H 0.0 **** 0.06
17650 H 51.16414992289659 95.25728074723054 41.86101642563865 H 0.0 **** 0.06
17651 C 85.70722667582709 48.16609046924083 18.346775189962273 C 0.0 **** -0.24
17652 H 85.82792684363415 47.354214895459336 19.062402378565366 H 0.0 **** 0.06
17653 H 86.41311396509656 48.96330091254595 18.57888397290219 H 0.0 **** 0.06
17654 H 84.68984074162626 48.55365707567927 18.404894699693898 H 0.0 **** 0.06
17655 H 85.89680792882365 47.79418512396282 17.339330263245188 H 0.0 **** 0.06
17656 C 108.20497229142245 20.900939991454266 15.890007348380276 C 0.0 **** -0.24
17657 H 108.36633890377664 21.14912147433523 14.841142908220892 H 0.0 **** 0.06
17658 H 108.54159383783042 19.881064640073618 16.077608235342026 H 0.0 **** 0.06
17659 H 107.14276975181684 20.981687535013634 16.12235729136596 H 0.0 **** 0.06
17660 H 108.76800821358637 21.591382058787104 16.51683355429878 H 0.0 **** 0.06
17661 C 99.67118128539335 55.783916493693425 76.13395963617296 C 0.0 **** -0.24
17662 H 98.8199209065402 56.31508894490969 75.70619855763968 H 0.0 **** 0.06
17663 H 99.58232663673044 55.772051049634115 77.22105117338401 H 0.0 **** 0.06
17664 H 100.59414704715965 56.28884825771763 75.8498928296782 H 0.0 **** 0.06
17665 H 99.6847652650244 54.76077655766102 75.75898232270362 H 0.0 **** 0.06
17666 C 81.57189896966668 59.202279576369136 42.260213880931644 C 0.0 **** -0.24
17667 H 80.99610336914262 59.73610615883001 43.016175827080644 H 0.0 **** 0.06
17668 H 80.89475547155297 58.634644291887156 41.62118823287341 H 0.0 **** 0.06
17669 H 82.26736785431964 58.51965618280673 42.749406316380856 H 0.0 **** 0.06
17670 H 82.12946399369764 59.91683115609919 41.65565198128769 H 0.0 **** 0.06
17671 C 57.57771655832902 24.354400793651656 98.50146589189126 C 0.0 **** -0.24
17672 H 57.76469644025171 25.03976627259588 99.32768227313215 H 0.0 **** 0.06
17673 H 56.51067327757284 24.136169979443576 98.44495150139073 H 0.0 **** 0.06
17674 H 58.12926840847147 23.427977187177156 98.6659918547918 H 0.0 **** 0.06
17675 H 57.90578526681668 24.81080666789744 97.56793955089742 H 0.0 **** 0.06
17676 C 30.648719356058166 13.32679840883182 75.43358807841915 C 0.0 **** -0.24
17677 H 30.52104314011018 14.407280365640219 75.51022660140593 H 0.0 **** 0.06
17678 H 29.669525011199937 12.848041986637384 75.39640405751629 H 0.0 **** 0.06
17679 H 31.19724600396978 12.963816625603528 76.30165634166032 H 0.0 **** 0.06
17680 H 31.20390185065264 13.08961349798443 74.5268243220608 H 0.0 **** 0.06
17681 C 90.20746114418581 104.53845669421999 6.866519867308909 C 0.0 **** -0.24
17682 H 90.24963149762917 104.39512609620665 7.946739714615736 H 0.0 **** 0.06
17683 H 89.43461498621441 105.2687183795262 6.627106960438379 H 0.0 **** 0.06
17684 H 89.97481191689137 103.58982814630214 6.383712421212447 H 0.0 **** 0.06
17685 H 91.17296810404147 104.9003600127366 6.5120128870889555 H 0.0 **** 0.06
17686 C 6.90081294401574 3.0977429137178376 72.3463867779833 C 0.0 **** -0.24
17687 H 6.2557743638253385 2.5430313920312244 73.02764459310902 H 0.0 **** 0.06
17688 H 7.451869860113135 2.397576202392031 71.71735594570714 H 0.0 **** 0.06
17689 H 7.6038224005702375 3.7012577446530486 72.9211914868593 H 0.0 **** 0.06
17690 H 6.291966242866522 3.748460763674956 71.71810986840941 H 0.0 **** 0.06
17691 C 56.52267292277696 21.713522829053932 92.77773886955919 C 0.0 **** -0.24
17692 H 57.54253310740711 21.329821332175516 92.73326091157463 H 0.0 **** 0.06
17693 H 56.172967903147935 21.9284843350778 91.76771617648433 H 0.0 **** 0.06
17694 H 56.50373027283058 22.626601075182403 93.37107271939453 H 0.0 **** 0.06
17695 H 55.87449607451168 20.96773490668882 93.23632031117518 H 0.0 **** 0.06
17696 C 29.126653480457612 84.24952762823534 12.689906203065277 C 0.0 **** -0.24
17697 H 28.273168841259306 84.7535460356491 13.1436035574161 H 0.0 **** 0.06
17698 H 29.108960582014163 83.19347501942428 12.957782430497275 H 0.0 **** 0.06
17699 H 30.049887427817332 84.70238929171472 13.052061253031866 H 0.0 **** 0.06
17700 H 29.073691512627008 84.35151778968384 11.605686238371106 H 0.0 **** 0.06
17701 C 57.470494334750114 3.578144969083027 69.94817309385536 C 0.0 **** -0.24
17702 H 56.72481283030184 4.056672718828494 69.31278724116 H 0.0 **** 0.06
17703 H 56.994743532217804 2.796596176626596 70.54053659688525 H 0.0 **** 0.06
17704 H 57.91170755286609 4.320846134667946 70.61287659034579 H 0.0 **** 0.06
17705 H 58.250098218016554 3.1390265358332368 69.32593870532459 H 0.0 **** 0.06
17706 C 36.667765481406576 108.5535394446436 48.83126535906851 C 0.0 **** -0.24
17707 H 36.9790810970336 109.38909558630797 49.458567844777605 H 0.0 **** 0.06
17708 H 37.417863801574015 107.76434528258295 48.87905584930178 H 0.0 **** 0.06
17709 H 36.562213090146884 108.8930233334143 47.80059457091377 H 0.0 **** 0.06
17710 H 35.71143457964544 108.16935577273841 49.186712958643284 H 0.0 **** 0.06
17711 C 61.05753018785799 87.89280128293615 36.02372269454821 C 0.0 **** -0.24
17712 H 60.23835880601658 88.58605581118672 35.83606287467467 H 0.0 **** 0.06
17713 H 61.95509104891241 88.45434261472747 36.284121866778094 H 0.0 **** 0.06
17714 H 61.24578061029155 87.3006760364483 35.12840469987697 H 0.0 **** 0.06
17715 H 60.791050949453876 87.23102565343981 36.84857586717459 H 0.0 **** 0.06
17716 C 70.6783816533348 92.58047736747793 102.27758828897902 C 0.0 **** -0.24
17717 H 70.7377283840397 93.08191936873365 101.31157806635599 H 0.0 **** 0.06
17718 H 70.1972065341532 91.60960629324953 102.15385554875206 H 0.0 **** 0.06
17719 H 70.094812320177 93.18966436325181 102.96787149419544 H 0.0 **** 0.06
17720 H 71.68312845312609 92.44003402488073 102.67672162663246 H 0.0 **** 0.06
17721 C 73.90249431668923 42.03583444917143 52.316804886591456 C 0.0 **** -0.24
17722 H 74.60985601837115 41.43962315796554 52.89352526860603 H 0.0 **** 0.06
17723 H 72.92712338848116 42.011428483717424 52.80170767444923 H 0.0 **** 0.06
17724 H 73.81942150292164 41.62662860245359 51.30993183202821 H 0.0 **** 0.06
17725 H 74.25663431205876 43.06511580312514 52.26265135638232 H 0.0 **** 0.06
17726 C 1.0436233443453347 66.45095135262977 32.56255137185096 C 0.0 **** -0.24
17727 H 1.4340485773914082 65.45846369249966 32.33612417283854 H 0.0 **** 0.06
17728 H 0.7777344514047542 66.9563374025995 31.63457731074149 H 0.0 **** 0.06
17729 H 1.805232015615971 67.02818952990197 33.08715712832836 H 0.0 **** 0.06
17730 H 0.159348760932005 66.35758159906823 33.192567552344656 H 0.0 **** 0.06
17731 C 89.62962087009868 84.46137847236301 74.0375917291239 C 0.0 **** -0.24
17732 H 88.57981731884757 84.75443795409058 74.03636663356917 H 0.0 **** 0.06
17733 H 89.8900059073818 84.03983337278726 73.06679349202625 H 0.0 **** 0.06
17734 H 89.79751628597165 83.71502017779267 74.81470455258165 H 0.0 **** 0.06
17735 H 90.25092590413342 85.33577586638114 74.23337006256918 H 0.0 **** 0.06
17736 C 35.25104448244633 68.20346825254722 68.8255221373517 C 0.0 **** -0.24
17737 H 34.78737779465442 67.3950486907695 68.26172448429668 H 0.0 **** 0.06
17738 H 34.73220455145196 69.13905660394448 68.61337243386737 H 0.0 **** 0.06
17739 H 36.29813038115435 68.2953366268984 68.53491889556511 H 0.0 **** 0.06
17740 H 35.18766270059848 67.9854640893127 69.89136629637989 H 0.0 **** 0.06
17741 C 42.26032756585073 22.910362176646487 3.9213281563553153 C 0.0 **** -0.24
17742 H 41.42045861854737 23.443495590454262 4.367045315895126 H 0.0 **** 0.06
17743 H 43.195591713224445 23.339984124200143 4.280241545158503 H 0.0 **** 0.06
17744 H 42.2116871369318 22.99915012573554 2.8350764472091328 H 0.0 **** 0.06
17745 H 42.2119219724471 21.85743666246786 4.201115006629081 H 0.0 **** 0.06
17746 C 42.607460017094695 41.12351691843347 16.26883827578581 C 0.0 **** -0.24
17747 H 41.901901896326194 41.633431439910254 16.924402732522623 H 0.0 **** 0.06
17748 H 43.26385006684205 41.85653097997661 15.800728981984548 H 0.0 **** 0.06
17749 H 42.06018802296583 40.58061720502536 15.497752570758394 H 0.0 **** 0.06
17750 H 43.202916935269116 40.42147964921077 16.85246794594852 H 0.0 **** 0.06
17751 C 35.14068104320326 10.682500991018543 59.05139514410217 C 0.0 **** -0.24
17752 H 35.488317770900494 10.512623854352185 60.07011949244756 H 0.0 **** 0.06
17753 H 35.783878685979346 10.144600179480719 58.354351090504366 H 0.0 **** 0.06
17754 H 35.176120536262545 11.749758477859046 58.83011157074483 H 0.0 **** 0.06
17755 H 34.116288071899874 10.324176288505882 58.952060917524534 H 0.0 **** 0.06
17756 C 28.325583217308285 9.047367587859554 11.572220280341785 C 0.0 **** -0.24
17757 H 28.42248732971231 8.120892026186766 12.13958397901299 H 0.0 **** 0.06
17758 H 29.28894158937093 9.307459925775646 11.133360967929171 H 0.0 **** 0.06
17759 H 28.001071665376955 9.847704681883698 12.237873864055391 H 0.0 **** 0.06
17760 H 27.58898483214667 8.911997169461472 10.779872148129748 H 0.0 **** 0.06
17761 C 63.02279446890695 101.90648573779279 80.68464766319113 C 0.0 **** -0.24
17762 H 62.66898336034194 100.87524313283656 80.68915103117257 H 0.0 **** 0.06
17763 H 64.05714640304677 101.93613843105922 81.02589334202992 H 0.0 **** 0.06
17764 H 62.40214225141466 102.50566435154622 81.35021180912344 H 0.0 **** 0.06
17765 H 62.960937334349595 102.306813489013 79.67244892963396 H 0.0 **** 0.06
17766 C 62.81707522641352 49.421302785311184 94.35880568625504 C 0.0 **** -0.24
17767 H 61.82819061800615 49.484849893726334 94.81288041601962 H 0.0 **** 0.06
17768 H 62.94222084503053 48.4395111717256 93.90017865394985 H 0.0 **** 0.06
17769 H 63.57805117573065 49.56477460040094 95.12511257408308 H 0.0 **** 0.06
17770 H 62.91688909926697 50.194558837026534 93.59699853263322 H 0.0 **** 0.06
17771 C 90.97936011137604 28.502349156503215 73.52263480770267 C 0.0 **** -0.24
17772 H 91.6110038614567 29.047233526591413 74.22502865406287 H 0.0 **** 0.06
17773 H 91.59994492824346 28.06614631439129 72.73915124977881 H 0.0 **** 0.06
17774 H 90.25825554163106 29.18593700030138 73.07741060111803 H 0.0 **** 0.06
17775 H 90.45040052690099 27.709030117442666 74.05144153765474 H 0.0 **** 0.06
17776 C 1.3819069728422306 52.97089349764582 42.18093307642451 C 0.0 **** -0.24
17777 H 1.6247002259852366 53.578216051925835 43.05247858806854 H 0.0 **** 0.06
17778 H 2.2982880973513318 52.54849365305881 41.76630436554885 H 0.0 **** 0.06
17779 H 0.8948438695782528 53.59111813734273 41.42934360846806 H 0.0 **** 0.06
17780 H 0.7111942944326586 52.163884193218166 42.47636557912466 H 0.0 **** 0.06
17781 C 90.97537115851947 79.44116697868452 53.993124671676966 C 0.0 **** -0.24
17782 H 92.05947539257204 79.33244175341952 54.00756971438095 H 0.0 **** 0.06
17783 H 90.66605421030636 80.10902707006869 54.79688941950008 H 0.0 **** 0.06
17784 H 90.51095923181072 78.46483608349868 54.13189574759353 H 0.0 **** 0.06
17785 H 90.66496722958192 79.85771633964387 53.03425139874666 H 0.0 **** 0.06
17786 C 92.59325294522745 48.873981268380994 79.59490262763012 C 0.0 **** -0.24
17787 H 91.6982766321185 49.41795451249868 79.29195147636693 H 0.0 **** 0.06
17788 H 93.1570640014063 48.58065721498013 78.70886086787834 H 0.0 **** 0.06
17789 H 92.3053704934689 47.98449451347698 80.15415642243033 H 0.0 **** 0.06
17790 H 93.21145841106159 49.51394017125373 80.22445919078666 H 0.0 **** 0.06
17791 C 2.4130915452712713 100.56976696333808 25.118903225446616 C 0.0 **** -0.24
17792 H 3.4773151763718193 100.42913147646989 24.93040766796446 H 0.0 **** 0.06
17793 H 1.8791891833711096 99.64715928167412 24.890624426231454 H 0.0 **** 0.06
17794 H 2.0355250163305554 101.37436322798091 24.487506951484335 H 0.0 **** 0.06
17795 H 2.2612101236942044 100.82794852912642 26.166929549221067 H 0.0 **** 0.06
17796 C 61.83190027283399 34.69448492981422 61.99910670899956 C 0.0 **** -0.24
17797 H 62.234992449800956 35.446131356202386 62.677558765207124 H 0.0 **** 0.06
17798 H 61.84099807349804 33.71990645953804 62.489361749083514 H 0.0 **** 0.06
17799 H 62.44333509145582 34.653519623591706 61.09742650396328 H 0.0 **** 0.06
17800 H 60.80822376395372 34.95698278811335 61.73227691560692 H 0.0 **** 0.06
17801 C 44.97048448292702 28.143948804347815 26.20809331088759 C 0.0 **** -0.24
17802 H 45.33169459132847 27.453897073900862 26.97089063004512 H 0.0 **** 0.06
17803 H 45.297230407283905 27.800792344604588 25.226047156383913 H 0.0 **** 0.06
17804 H 45.371892941321676 29.1383748723961 26.398586929502756 H 0.0 **** 0.06
17805 H 43.88146620132602 28.179013838162945 26.237101681655417 H 0.0 **** 0.06
17806 C 51.35123770173533 33.08233965858824 24.188532334838158 C 0.0 **** -0.24
17807 H 50.70883031841635 32.807069662200206 23.352260230869092 H 0.0 **** 0.06
17808 H 50.86665113555995 32.805066004492645 25.124527542393764 H 0.0 **** 0.06
17809 H 51.52644158449766 34.157997833190706 24.17449859507815 H 0.0 **** 0.06
17810 H 52.303356641862194 32.55835735488452 24.1032155974043 H 0.0 **** 0.06
17811 C 71.46235213091407 93.35373418234093 91.25361424739577 C 0.0 **** -0.24
17812 H 70.44961529918504 93.70931790281445 91.06250115164403 H 0.0 **** 0.06
17813 H 71.83146401116682 93.79105474890089 92.18136583638288 H 0.0 **** 0.06
17814 H 72.11155718149945 93.6472626230682 90.42817450796471 H 0.0 **** 0.06
17815 H 71.45460547937756 92.26795254377298 91.34071769212667 H 0.0 **** 0.06
17816 C 36.74454976586702 8.839345507305236 1.8454369620424984 C 0.0 **** -0.24
17817 H 37.76370561246409 9.118274041939307 2.113491261875538 H 0.0 **** 0.06
17818 H 36.754881318694856 8.281822577636973 0.9080633013143 H 0.0 **** 0.06
17819 H 36.14094817612295 9.738742025533508 1.72732327754305 H 0.0 **** 0.06
17820 H 36.319852651020085 8.216811316648457 2.634129866228875 H 0.0 **** 0.06
17821 C 86.42918005984346 5.358592063176346 109.5854672736441 C 0.0 **** -0.24
17822 H 85.70639179247706 4.546725845806236 109.50769707383336 H 0.0 **** 0.06
17823 H 87.36831608539562 5.053574159620283 109.12303835529144 H 0.0 **** 0.06
17824 H 86.60058508387932 5.593006545034811 110.6361123306647 H 0.0 **** 0.06
17825 H 86.04165104394771 6.239922374368135 109.07421389456283 H 0.0 **** 0.06
17826 C 2.042317667577805 7.736587020656401 89.56634139352514 C 0.0 **** -0.24
17827 H 2.963353313402891 7.880838792378768 89.00016411867088 H 0.0 **** 0.06
17828 H 1.3796984747661298 8.58726284581978 89.40386259739785 H 0.0 **** 0.06
17829 H 2.276840080373205 7.655524421876152 90.62754209899913 H 0.0 **** 0.06
17830 H 1.5502925459323933 6.823660021553238 89.23109756000474 H 0.0 **** 0.06
17831 C 2.596472718872576 21.021674582041328 81.21416922356869 C 0.0 **** -0.24
17832 H 2.7162330165049298 22.06278357331186 81.51359766760058 H 0.0 **** 0.06
17833 H 3.306718368553163 20.789018746501327 80.42018415658274 H 0.0 **** 0.06
17834 H 1.581059538197053 20.862493351305616 80.85222829329291 H 0.0 **** 0.06
17835 H 2.7827061765202643 20.373523601267934 82.07041992344895 H 0.0 **** 0.06
17836 C 3.1459057570884994 92.77228301071943 23.359411058414082 C 0.0 **** -0.24
17837 H 4.020800356998791 93.4184145046159 23.290466341181826 H 0.0 **** 0.06
17838 H 2.540446160367239 92.88341519127607 22.459157626207514 H 0.0 **** 0.06
17839 H 2.555545689470577 93.05063674244695 24.231674202089152 H 0.0 **** 0.06
17840 H 3.467825578198216 91.7348614468383 23.453946903990726 H 0.0 **** 0.06
17841 C 82.84233107084063 86.18485562966919 33.58366936960937 C 0.0 **** -0.24
17842 H 83.02071324048471 87.07799259406286 34.18298068830859 H 0.0 **** 0.06
17843 H 82.39537084418401 86.4711858501579 32.63072734048285 H 0.0 **** 0.06
17844 H 82.16397984117215 85.51907779922348 34.118146124714485 H 0.0 **** 0.06
17845 H 83.7871381498986 85.67325957304442 33.40316212427109 H 0.0 **** 0.06
17846 C 59.651354587978915 3.9086946605465016 102.87174328917013 C 0.0 **** -0.24
17847 H 59.10812093182861 4.851566698941468 102.80920231560413 H 0.0 **** 0.06
17848 H 59.681712216906476 3.5742688682815356 103.90896153573885 H 0.0 **** 0.06
17849 H 60.667564834246946 4.05018870989889 102.50526003065568 H 0.0 **** 0.06
17850 H 59.14721780788901 3.1583448218555787 102.26245919705963 H 0.0 **** 0.06
17851 C 53.56194321911815 60.5775957659348 53.140403287530944 C 0.0 **** -0.24
17852 H 53.73042441074391 59.61710318667497 52.65188201877032 H 0.0 **** 0.06
17853 H 52.661753648992345 61.03892944959921 52.73151828514051 H 0.0 **** 0.06
17854 H 54.416825202093996 61.22916595284744 52.963595830172494 H 0.0 **** 0.06
17855 H 53.437028898376916 60.42217151649578 54.21147168930685 H 0.0 **** 0.06
17856 C 46.39842285291925 17.741721796301224 81.08907063480385 C 0.0 **** -0.24
17857 H 47.448860152429916 18.03174727226659 81.06710333805077 H 0.0 **** 0.06
17858 H 45.82352839175621 18.501077674238235 81.6199302337917 H 0.0 **** 0.06
17859 H 46.296326537413165 16.78472238020489 81.60045044213581 H 0.0 **** 0.06
17860 H 46.02497633007789 17.64933985849504 80.06879852523765 H 0.0 **** 0.06
17861 C 99.72701335545207 102.0291461416492 4.687923451237708 C 0.0 **** -0.24
17862 H 100.41781244083455 101.23068633615301 4.4139024456428615 H 0.0 **** 0.06
17863 H 100.28353725753405 102.8522001880429 5.136601580432256 H 0.0 **** 0.06
17864 H 98.99886056804189 101.64843239096324 5.404955863432548 H 0.0 **** 0.06
17865 H 99.20929668695075 102.38245743576213 3.7962747346738297 H 0.0 **** 0.06
17866 C 89.82574300136991 29.167954742011148 30.79877759751048 C 0.0 **** -0.24
17867 H 89.83643408620213 28.123131210046665 31.10987464563661 H 0.0 **** 0.06
17868 H 89.98295987433109 29.227354558379005 29.72171149432893 H 0.0 **** 0.06
17869 H 90.62079517039409 29.7077179867035 31.312606869100478 H 0.0 **** 0.06
17870 H 88.86326069495821 29.611681774862063 31.05073379682746 H 0.0 **** 0.06
17871 C 28.306774104387557 44.865186557530365 66.85010446770129 C 0.0 **** -0.24
17872 H 28.712266744696308 45.15424168432557 67.81949123010106 H 0.0 **** 0.06
17873 H 27.979437130927238 45.75681599359049 66.31407705605861 H 0.0 **** 0.06
17874 H 27.458535126916615 44.1968761288845 66.9964316507799 H 0.0 **** 0.06
17875 H 29.076033453403284 44.355303499095385 66.27187260725643 H 0.0 **** 0.06
17876 C 94.64470258682147 16.349876909207467 19.22012678527352 C 0.0 **** -0.24
17877 H 94.81743925041738 15.501748293620722 18.557967638509865 H 0.0 **** 0.06
17878 H 94.62807220711323 17.269426029820238 18.63595758122881 H 0.0 **** 0.06
17879 H 95.44542075156866 16.4027971531346 19.95869214966183 H 0.0 **** 0.06
17880 H 93.68934973316502 16.224045231016305 19.729159352532065 H 0.0 **** 0.06
17881 C 51.721895708066654 55.522420788522716 98.25843308959946 C 0.0 **** -0.24
17882 H 50.84842711855708 55.9223196741718 97.74325023224151 H 0.0 **** 0.06
17883 H 51.39880375315698 54.807904707025386 99.01719480914815 H 0.0 **** 0.06
17884 H 52.26692548095144 56.336413791343595 98.73486223254375 H 0.0 **** 0.06
17885 H 52.369326838423774 55.02176077178391 97.53916311486614 H 0.0 **** 0.06
17886 C 44.10628763511814 45.78517931237991 82.32725498847083 C 0.0 **** -0.24
17887 H 44.43722386679949 46.80160139862727 82.11350226357894 H 0.0 **** 0.06
17888 H 43.01880183263988 45.73781221311839 82.27255728582247 H 0.0 **** 0.06
17889 H 44.433185132455336 45.5008432331943 83.32792672821682 H 0.0 **** 0.06
17890 H 44.537645458356245 45.10150945190108 81.59602874668587 H 0.0 **** 0.06
17891 C 77.7410375733389 86.53684462809576 62.27488011419405 C 0.0 **** -0.24
17892 H 77.25707558245574 86.86288819140111 63.19475629055971 H 0.0 **** 0.06
17893 H 78.82120847814993 86.65063317927434 62.37261395245241 H 0.0 **** 0.06
17894 H 77.38477086246752 87.14363505028405 61.44239931579942 H 0.0 **** 0.06
17895 H 77.50194553307888 85.48914638073586 62.08940424420571 H 0.0 **** 0.06
17896 C 103.19018005381272 50.93836830603368 64.26903986613729 C 0.0 **** -0.24
17897 H 102.12444026152694 51.06206331250655 64.07707868169982 H 0.0 **** 0.06
17898 H 103.71870131016348 51.84889761136341 63.98513570358682 H 0.0 **** 0.06
17899 H 103.56989043861233 50.1009571784883 63.68357552427585 H 0.0 **** 0.06
17900 H 103.34822360265403 50.74206696272523 65.32916478644785 H 0.0 **** 0.06
17901 C 37.588665209995185 76.31378314997964 94.81236916462869 C 0.0 **** -0.24
17902 H 37.56130778556775 76.96012205033686 95.69023334110443 H 0.0 **** 0.06
17903 H 38.61734243316323 76.0030776072313 94.6234612149599 H 0.0 **** 0.06
17904 H 37.208544213791754 76.85887960957754 93.94775954503497 H 0.0 **** 0.06
17905 H 36.970429395663444 75.4343420708856 94.98877115609393 H 0.0 **** 0.06
17906 C 0.4373448645762892 48.016578551694124 8.35981147910445 C 0.0 **** -0.24
17907 H 0.530821890200798 48.90717169039573 8.98367277672611 H 0.0 **** 0.06
17908 H 0.5171373382573847 47.12725335163026 8.984313418015631 H 0.0 **** 0.06
17909 H 1.2327015403321298 48.010614676822854 7.615014851447768 H 0.0 **** 0.06
17910 H -0.5301784219926731 48.025229000936974 7.858513471967967 H 0.0 **** 0.06
17911 C 96.5821410682384 12.512167791690757 84.91523667450315 C 0.0 **** -0.24
17912 H 97.47613419510921 12.970208768897265 85.33741504188981 H 0.0 **** 0.06
17913 H 96.77381081877542 11.45757677871569 84.7150507394677 H 0.0 **** 0.06
17914 H 96.31949501843712 13.01604067457086 83.9853635618532 H 0.0 **** 0.06
17915 H 95.75828254029517 12.60370920843124 85.62315910452435 H 0.0 **** 0.06
17916 C 16.18435957880064 15.426908402245829 96.58797599353517 C 0.0 **** -0.24
17917 H 16.285319870110186 15.79852731860488 97.60706686355418 H 0.0 **** 0.06
17918 H 15.157439825628842 15.56960305951235 96.24943354459674 H 0.0 **** 0.06
17919 H 16.43094640912068 14.364975664075562 96.56238868251378 H 0.0 **** 0.06
17920 H 16.86230869225409 15.973620634059657 95.9326260160018 H 0.0 **** 0.06
17921 C 60.421397223753644 6.736580931790257 43.92021369482177 C 0.0 **** -0.24
17922 H 60.36449226205376 7.548184967621381 44.645043011807104 H 0.0 **** 0.06
17923 H 61.08271746515956 5.956722827619544 44.29784015060096 H 0.0 **** 0.06
17924 H 60.81046869818675 7.118071210802825 42.97664314884099 H 0.0 **** 0.06
17925 H 59.4250274307371 6.3223454986436565 43.76049772334551 H 0.0 **** 0.06
17926 C 93.63139415621653 18.88732905079712 6.947426449704608 C 0.0 **** -0.24
17927 H 93.12877112563699 19.724434398011624 6.464432124064288 H 0.0 **** 0.06
17928 H 92.95668129654752 18.031903268539637 6.984764973626568 H 0.0 **** 0.06
17929 H 93.91608825157743 19.170163795253757 7.960623182090103 H 0.0 **** 0.06
17930 H 94.52286356125245 18.622032259228945 6.379770094576244 H 0.0 **** 0.06
17931 C 81.5139531152179 15.322800928941433 64.3599259252997 C 0.0 **** -0.24
17932 H 81.01436428047312 16.108011597637187 63.792175025441225 H 0.0 **** 0.06
17933 H 82.58356259594258 15.350290194458097 64.15227055130839 H 0.0 **** 0.06
17934 H 81.11194719895364 14.352903117053415 64.06921597068367 H 0.0 **** 0.06
17935 H 81.34550918091023 15.481776404292418 65.42523213641454 H 0.0 **** 0.06
17936 C 24.879238601366126 13.414169005804467 79.84126677908125 C 0.0 **** -0.24
17937 H 25.03971398086526 14.032598584336768 80.72349424098257 H 0.0 **** 0.06
17938 H 24.063645841972914 13.829954558875556 79.24884907689551 H 0.0 **** 0.06
17939 H 24.62463940777866 12.399842223440942 80.15002613131605 H 0.0 **** 0.06
17940 H 25.789520101179562 13.393144141802281 79.24151896399837 H 0.0 **** 0.06
17941 C 2.211314584907768 8.367555449516061 71.7231223500961 C 0.0 **** -0.24
17942 H 1.574471027242737 8.820881495024139 72.48313463427718 H 0.0 **** 0.06
17943 H 2.484250298274219 9.119608302814811 70.9825614237505 H 0.0 **** 0.06
17944 H 1.6727448519188783 7.5548151708783 71.23605794746712 H 0.0 **** 0.06
17945 H 3.1141301765869684 7.975358704291693 72.19312093258242 H 0.0 **** 0.06
17946 C 34.81693935929076 74.24075228763762 16.828291664102117 C 0.0 **** -0.24
17947 H 34.55204169056236 75.1520111645969 17.36343584106802 H 0.0 **** 0.06
17948 H 34.660025923484966 74.38870117867282 15.759414586256682 H 0.0 **** 0.06
17949 H 34.190986443513566 73.41922739293418 17.17844551408263 H 0.0 **** 0.06
17950 H 35.86452992576915 74.00379057219192 17.012541456886108 H 0.0 **** 0.06
17951 C 61.666222932149765 8.149532767805736 83.30689545870922 C 0.0 **** -0.24
17952 H 61.101697350013126 8.052295965896091 84.23437416337005 H 0.0 **** 0.06
17953 H 62.6956286925988 7.831437244183578 83.47381433802867 H 0.0 **** 0.06
17954 H 61.65523544716228 9.190970322673513 82.98372985153718 H 0.0 **** 0.06
17955 H 61.2112012200609 7.525361297953559 82.53766006318106 H 0.0 **** 0.06
17956 C 37.37190452533014 62.739366955112985 60.918398799598805 C 0.0 **** -0.24
17957 H 36.34067901827325 63.08840552016051 60.867616089194556 H 0.0 **** 0.06
17958 H 37.730173565036864 62.81427455198872 61.94571816201716 H 0.0 **** 0.06
17959 H 37.995664522203356 63.35411815116146 60.26960045782937 H 0.0 **** 0.06
17960 H 37.420077992269654 61.70002937047866 60.591397830981165 H 0.0 **** 0.06
17961 C 107.77470884327379 13.816433990065516 26.058711608727094 C 0.0 **** -0.24
17962 H 108.67495747896373 13.397769303597645 25.60813068403258 H 0.0 **** 0.06
17963 H 107.99919348189673 14.159003179475246 27.068967454426698 H 0.0 **** 0.06
17964 H 106.99912430394313 13.051577177878176 26.097202365921852 H 0.0 **** 0.06
17965 H 107.42601617673067 14.65698550552623 25.45839381211663 H 0.0 **** 0.06
17966 C 29.847013345580763 41.53439756470743 16.48549013381256 C 0.0 **** -0.24
17967 H 30.279006252073714 40.60855486970297 16.104058154089643 H 0.0 **** 0.06
17968 H 29.38029732571283 41.3448209685601 17.452115053587306 H 0.0 **** 0.06
17969 H 29.096149129970456 41.89930979580913 15.78405239618914 H 0.0 **** 0.06
17970 H 30.632054317066093 42.28103455909496 16.59914163709479 H 0.0 **** 0.06
17971 C 7.109293354728575 73.01190474414813 107.22580072215031 C 0.0 **** -0.24
17972 H 7.2916783648013865 72.8604507875466 106.16153510296279 H 0.0 **** 0.06
17973 H 7.130230324109764 72.05029353358651 107.73886348586831 H 0.0 **** 0.06
17974 H 6.133610862624517 73.47755534780492 107.36374288030099 H 0.0 **** 0.06
17975 H 7.88278624547309 73.66029844131862 107.63740031596475 H 0.0 **** 0.06
17976 C 68.51583894827021 103.91083260690999 59.246897695617804 C 0.0 **** -0.24
17977 H 68.36396736117626 104.22210052900573 58.21280474795151 H 0.0 **** 0.06
17978 H 69.29716128060801 103.15171721361344 59.28566755496922 H 0.0 **** 0.06
17979 H 67.58725266596717 103.49777572504848 59.64183620952622 H 0.0 **** 0.06
17980 H 68.81455015266968 104.77201821154296 59.8453480938345 H 0.0 **** 0.06
17981 C 47.81383531467468 102.32332953841909 54.12651318965808 C 0.0 **** -0.24
17982 H 48.08053336848893 101.96431497967106 53.132548626807896 H 0.0 **** 0.06
17983 H 47.53177419482449 103.37410135735409 54.06913796405285 H 0.0 **** 0.06
17984 H 48.6678455509252 102.21161966746996 54.79467581353253 H 0.0 **** 0.06
17985 H 46.9746214828332 101.74136497615054 54.50974985514621 H 0.0 **** 0.06
17986 C 30.388728562717517 29.838645866521766 69.38502702005232 C 0.0 **** -0.24
17987 H 29.486107217382198 30.36377412031836 69.69751844232528 H 0.0 **** 0.06
17988 H 30.700709950280356 29.152146653012522 70.17195922537127 H 0.0 **** 0.06
17989 H 31.183175014070287 30.560890096747542 69.19583401113368 H 0.0 **** 0.06
17990 H 30.18368755155774 29.276564050899665 68.47305982936945 H 0.0 **** 0.06
17991 C 3.5648080576051484 83.24375461876247 56.839720042943775 C 0.0 **** -0.24
17992 H 2.9210833654136934 82.7404919101256 57.560855959220355 H 0.0 **** 0.06
17993 H 3.9823780753699225 82.50959760536003 56.150707980210676 H 0.0 **** 0.06
17994 H 4.373948331993276 83.74971364994039 57.366316030087376 H 0.0 **** 0.06
17995 H 2.9816386161454744 83.97693130892071 56.28114750248054 H 0.0 **** 0.06
17996 C 91.96909664057591 86.4088327454503 6.374342898363828 C 0.0 **** -0.24
17997 H 91.1146100575308 86.36879552867714 5.699037376091825 H 0.0 **** 0.06
17998 H 92.88751621469993 86.24682903912873 5.80928255253238 H 0.0 **** 0.06
17999 H 91.86809397957998 85.63274351044282 7.133281528949141 H 0.0 **** 0.06
18000 H 92.00607342403013 87.38556796195823 6.855983698863669 H 0.0 **** 0.06
18001 C 58.254491521681 86.12646320535431 76.89965801132013 C 0.0 **** -0.24
18002 H 58.01927047307067 85.51580039707879 76.02816283729845 H 0.0 **** 0.06
18003 H 58.8389109084873 85.53916737037135 77.60815604391229 H 0.0 **** 0.06
18004 H 57.328914767859786 86.45266933531012 77.37507061874987 H 0.0 **** 0.06
18005 H 58.82918945311384 86.9981307548491 76.58765352301936 H 0.0 **** 0.06
18006 C 25.460956535169345 84.00019930667867 55.07861708075975 C 0.0 **** -0.24
18007 H 24.696714857547207 83.26429378127332 55.32631553336736 H 0.0 **** 0.06
18008 H 25.1948265699872 84.50058026726822 54.14753298128087 H 0.0 **** 0.06
18009 H 26.422058319475752 83.49937504823419 54.960340680271756 H 0.0 **** 0.06
18010 H 25.531116936750877 84.73540656514095 55.87932838553217 H 0.0 **** 0.06
18011 C 2.017183310744443 89.70463580595913 56.60874235237196 C 0.0 **** -0.24
18012 H 0.9273351817299442 89.6799464894901 56.638565403959205 H 0.0 **** 0.06
18013 H 2.415172929493764 88.86741879693355 57.18361006815047 H 0.0 **** 0.06
18014 H 2.369978492956662 90.6418580510276 57.03988492434678 H 0.0 **** 0.06
18015 H 2.354576634395187 89.62943998021277 55.57559176502008 H 0.0 **** 0.06
18016 C 3.738019018606213 19.377002188878976 12.579682158861058 C 0.0 **** -0.24
18017 H 4.072518711044301 18.78025645635148 11.731606509838326 H 0.0 **** 0.06
18018 H 3.366117186962013 20.338000923621593 12.223187610273929 H 0.0 **** 0.06
18019 H 4.573380288196612 19.54085602799222 13.261582011748224 H 0.0 **** 0.06
18020 H 2.9407554399126576 18.849104237667206 13.103039978900597 H 0.0 **** 0.06
18021 C 96.43674126351613 39.45075957586795 57.8976206353967 C 0.0 **** -0.24
18022 H 96.90631766742507 40.248638462813545 58.47336638695176 H 0.0 **** 0.06
18023 H 95.91972252067734 38.770815793613 58.57498387119878 H 0.0 **** 0.06
18024 H 97.19961582023632 38.90338428470778 57.34539016898202 H 0.0 **** 0.06
18025 H 95.7205970433057 39.881933911954064 57.198318843644884 H 0.0 **** 0.06
18026 C 75.38085033268527 11.876600151025869 12.019643867264726 C 0.0 **** -0.24
18027 H 74.73908929326603 11.468227391775812 12.801453567761875 H 0.0 **** 0.06
18028 H 75.13787114242362 12.927999658509805 11.863948386498016 H 0.0 **** 0.06
18029 H 75.22069071251366 11.324805099545301 11.094068415473162 H 0.0 **** 0.06
18030 H 76.42380796549986 11.784744497662274 12.321904932478258 H 0.0 **** 0.06
18031 C 39.97970838190113 84.02408395692933 86.28603297734689 C 0.0 **** -0.24
18032 H 41.04933696090146 84.21906142294038 86.20685363438254 H 0.0 **** 0.06
18033 H 39.46240674682571 84.49019778443957 85.44620151543981 H 0.0 **** 0.06
18034 H 39.602494696481784 84.43935674362505 87.22016475279699 H 0.0 **** 0.06
18035 H 39.804276683141154 82.9485151780162 86.26884649487721 H 0.0 **** 0.06
18036 C 107.36862355784336 103.32242633196438 104.30072321584358 C 0.0 **** -0.24
18037 H 108.28927880543118 103.1737801764425 103.73557620139862 H 0.0 **** 0.06
18038 H 107.5869076171978 103.88114125641454 105.21057350184516 H 0.0 **** 0.06
18039 H 106.94375552786234 102.35295505235142 104.56286346093901 H 0.0 **** 0.06
18040 H 106.65482512846381 103.8787021979159 103.69280722918361 H 0.0 **** 0.06
18041 C 100.24568077783474 61.68034127109398 48.350256324881556 C 0.0 **** -0.24
18042 H 99.96757766940203 62.10636069652091 47.386335701932815 H 0.0 **** 0.06
18043 H 99.35314786317412 61.30599262443687 48.85243457168833 H 0.0 **** 0.06
18044 H 100.71350674963313 62.44812512054705 48.96621952766546 H 0.0 **** 0.06
18045 H 100.94726086826165 60.8609382129321 48.19673165618427 H 0.0 **** 0.06
18046 C 108.35456171033366 17.800938661712095 56.3401735430574 C 0.0 **** -0.24
18047 H 107.8145778333643 18.295798409811425 57.14780968482023 H 0.0 **** 0.06
18048 H 109.37683613458603 17.596728982661062 56.66015217184906 H 0.0 **** 0.06
18049 H 108.36990824478681 18.446984640075 55.462951853396135 H 0.0 **** 0.06
18050 H 107.85686613282104 16.86287659123238 56.09280223386804 H 0.0 **** 0.06
18051 C 12.311228909607905 105.82172970767738 28.358500767728458 C 0.0 **** -0.24
18052 H 11.754817456197202 105.42797943708216 29.209208645829023 H 0.0 **** 0.06
18053 H 11.6895869457976 106.5358136107631 27.818339391081622 H 0.0 **** 0.06
18054 H 12.585254224334022 105.00267889520659 27.69441590917853 H 0.0 **** 0.06
18055 H 13.213178013053835 106.31893327454196 28.71358417634758 H 0.0 **** 0.06
18056 C 37.87252177166533 106.59534280704699 29.526089967236544 C 0.0 **** -0.24
18057 H 37.16537924785149 106.37308646876507 28.726147158913022 H 0.0 **** 0.06
18058 H 37.838829680912056 107.66165195518172 29.752599512421853 H 0.0 **** 0.06
18059 H 38.878570401694105 106.32304146524484 29.20843299614296 H 0.0 **** 0.06
18060 H 37.60528227787211 106.02590653360473 30.41558712080092 H 0.0 **** 0.06
18061 C 99.72514436963962 8.289236416310843 15.413302378741989 C 0.0 **** -0.24
18062 H 100.49393581944963 9.060577047835082 15.375116404907757 H 0.0 **** 0.06
18063 H 100.0989592234013 7.380897696734721 14.939716971055674 H 0.0 **** 0.06
18064 H 98.8367149963164 8.635966164639981 14.884140149518046 H 0.0 **** 0.06
18065 H 99.47079034527522 8.079806778772308 16.452266822625546 H 0.0 **** 0.06
18066 C 40.0831721124506 78.85417930484385 90.82117284267906 C 0.0 **** -0.24
18067 H 39.22433259851368 78.49905521286092 90.2511715641206 H 0.0 **** 0.06
18068 H 40.31617980713372 78.13742954649791 91.60999295420659 H 0.0 **** 0.06
18069 H 39.848631547152394 79.82084948788344 91.26641471389442 H 0.0 **** 0.06
18070 H 40.941979293510514 78.9575723424108 90.15861950520858 H 0.0 **** 0.06
18071 C 23.349084548545022 10.678537499117837 10.40712226375814 C 0.0 **** -0.24
18072 H 23.452089721102936 11.763046731703596 10.41470243790522 H 0.0 **** 0.06
18073 H 23.47717693367821 10.29442922769266 11.418468877905838 H 0.0 **** 0.06
18074 H 24.10796298921511 10.247104155576736 9.754694777057438 H 0.0 **** 0.06
18075 H 22.359010071604303 10.410697416139172 10.038694435437549 H 0.0 **** 0.06
18076 C 91.60148259283565 78.57411490337273 6.296642101398675 C 0.0 **** -0.24
18077 H 92.37110640775306 79.13922399278601 5.771314831133509 H 0.0 **** 0.06
18078 H 91.80400258117675 77.5073286078871 6.199371666264028 H 0.0 **** 0.06
18079 H 90.62630958933299 78.80066411051763 5.864980244273454 H 0.0 **** 0.06
18080 H 91.60498972944266 78.84997241165257 7.351390992528593 H 0.0 **** 0.06
18081 C 33.928194605796875 35.75895457902121 22.07710323348462 C 0.0 **** -0.24
18082 H 34.24744345787005 36.25181410551738 22.99523040623025 H 0.0 **** 0.06
18083 H 32.999263058294474 36.209766030531966 21.727982803010747 H 0.0 **** 0.06
18084 H 33.76830532906223 34.69843223141652 22.271853426222776 H 0.0 **** 0.06
18085 H 34.698869921120576 35.87685483611165 21.31526535193322 H 0.0 **** 0.06
18086 C 75.89459467105019 79.00242545262327 91.67478754965688 C 0.0 **** -0.24
18087 H 75.91184212585074 79.02060760398541 92.76452825321775 H 0.0 **** 0.06
18088 H 74.9901437721715 78.49840974543048 91.33436341084041 H 0.0 **** 0.06
18089 H 76.770390566711 78.46735518637325 91.3063621570924 H 0.0 **** 0.06
18090 H 75.9073430873434 80.02383579594971 91.2948688270672 H 0.0 **** 0.06
18091 C 87.72948608003448 58.9094435834042 76.34862104875572 C 0.0 **** -0.24
18092 H 88.39784933704846 59.76846673771023 76.40943758914892 H 0.0 **** 0.06
18093 H 86.95581355030548 59.10421294991337 75.6046347122271 H 0.0 **** 0.06
18094 H 87.26459331822413 58.741296925989445 77.32048643320667 H 0.0 **** 0.06
18095 H 88.29848330471312 58.02640625473463 76.05906265935744 H 0.0 **** 0.06
18096 C 74.00807484406963 109.42117756164392 50.70606350289656 C 0.0 **** -0.24
18097 H 74.61576049356783 109.09378246025632 49.862848564988774 H 0.0 **** 0.06
18098 H 74.39348634427512 110.36781346460256 51.086167906337934 H 0.0 **** 0.06
18099 H 74.04492813336196 108.67017584425952 51.49416758104374 H 0.0 **** 0.06
18100 H 72.97585391332493 109.5540740595737 50.3787128603567 H 0.0 **** 0.06
18101 C 67.4094285595574 92.12242190025673 40.678227057391666 C 0.0 **** -0.24
18102 H 68.20639146222669 91.81996895791663 41.357256654144464 H 0.0 **** 0.06
18103 H 66.53383979958386 91.49432777282279 40.841866739515325 H 0.0 **** 0.06
18104 H 67.74922248913145 92.01189399848428 39.64765895524724 H 0.0 **** 0.06
18105 H 67.14861913678658 93.16483368289857 40.864369590716336 H 0.0 **** 0.06
18106 C 60.11508991100163 108.70401461405953 84.49446845902533 C 0.0 **** -0.24
18107 H 61.03751610667331 108.12938919801867 84.57782554431638 H 0.0 **** 0.06
18108 H 59.385903907545185 108.13695976525757 83.91474050916636 H 0.0 **** 0.06
18109 H 60.32050079050663 109.65028229278731 83.99522437785018 H 0.0 **** 0.06
18110 H 59.7165500434275 108.89719616185536 85.49018513671044 H 0.0 **** 0.06
18111 C 58.9615716602716 47.02584895591916 9.045010654457407 C 0.0 **** -0.24
18112 H 60.01006803582993 47.304214209274136 9.15155643583269 H 0.0 **** 0.06
18113 H 58.36833031743578 47.918078981105 8.844007744113087 H 0.0 **** 0.06
18114 H 58.614347313331564 46.558936731906755 9.966755247808717 H 0.0 **** 0.06
18115 H 58.85466742485528 46.322955791132856 8.218775488705901 H 0.0 **** 0.06
18116 C 12.072150512728399 107.05534087343955 49.247018940015295 C 0.0 **** -0.24
18117 H 13.03102308637068 106.71649335948081 49.63654237719328 H 0.0 **** 0.06
18118 H 11.410832427398589 106.19822598029555 49.11586114508134 H 0.0 **** 0.06
18119 H 12.223661526763436 107.54756870146639 48.28567191259074 H 0.0 **** 0.06
18120 H 11.622257274851592 107.75837963439162 49.94780237426144 H 0.0 **** 0.06
18121 C 69.69843375655972 8.789611115774434 105.9832300364848 C 0.0 **** -0.24
18122 H 69.03301130214126 9.458455154004838 106.5293330360716 H 0.0 **** 0.06
18123 H 69.51633956759059 7.761176933761476 106.29443845908757 H 0.0 **** 0.06
18124 H 70.73398577452937 9.056837257736902 106.19403344271463 H 0.0 **** 0.06
18125 H 69.50985459649365 8.884312537054214 104.91331487100427 H 0.0 **** 0.06
18126 C 63.21386225552379 72.54071160800049 13.297436490983785 C 0.0 **** -0.24
18127 H 64.29053857814654 72.44586882981086 13.438290334716044 H 0.0 **** 0.06
18128 H 62.80473820457735 73.2040898965137 14.05884411875445 H 0.0 **** 0.06
18129 H 62.74875963641142 71.55807760642408 13.382870031218886 H 0.0 **** 0.06
18130 H 63.012762194961056 72.95245610887409 12.3084617227683 H 0.0 **** 0.06
18131 C 27.430784016157304 63.75376513064164 67.3011919137166 C 0.0 **** -0.24
18132 H 27.750495757529166 64.55455572483038 67.96809797687098 H 0.0 **** 0.06
18133 H 27.50278976069697 64.09176164557049 66.26740596206542 H 0.0 **** 0.06
18134 H 26.398406816825144 63.485346220133295 67.525431677619 H 0.0 **** 0.06
18135 H 28.0727008672078 62.88401829897181 67.44557380633154 H 0.0 **** 0.06
18136 C 42.90088399513405 24.737017994106736 10.292187648561196 C 0.0 **** -0.24
18137 H 43.107981744445 23.719490114523467 9.962629856490594 H 0.0 **** 0.06
18138 H 42.199009879920254 25.20749673843966 9.603285359615654 H 0.0 **** 0.06
18139 H 43.828948686297224 25.308850613853508 10.312663920965008 H 0.0 **** 0.06
18140 H 42.4678367263686 24.713158006124843 11.293015660378671 H 0.0 **** 0.06
18141 C 14.78436178762382 43.77480945435775 31.93723450446234 C 0.0 **** -0.24
18142 H 14.2886318165298 43.18969804174395 31.162045276292588 H 0.0 **** 0.06
18143 H 14.940013647977235 43.152297430393816 32.81844285119948 H 0.0 **** 0.06
18144 H 14.161086411440444 44.62909381397057 32.20092539745556 H 0.0 **** 0.06
18145 H 15.746395605507715 44.127541954771914 31.56582426166929 H 0.0 **** 0.06
18146 C 47.2575319121924 93.88516592252147 90.91461807899992 C 0.0 **** -0.24
18147 H 47.402589557963275 94.96569927147107 90.9237204413655 H 0.0 **** 0.06
18148 H 47.70607563291536 93.45085312629136 91.80824764618585 H 0.0 **** 0.06
18149 H 47.731187131915604 93.46413774947199 90.02794008826191 H 0.0 **** 0.06
18150 H 46.19051177914277 93.66227621950097 90.8977628490864 H 0.0 **** 0.06
18151 C 37.091488280077726 65.02534567337261 66.99080171566355 C 0.0 **** -0.24
18152 H 36.63224565385917 64.62770944200099 67.89582464367199 H 0.0 **** 0.06
18153 H 37.68238640172149 65.90738351807474 67.2407248808856 H 0.0 **** 0.06
18154 H 36.3131845309739 65.29816499473537 66.27902528204444 H 0.0 **** 0.06
18155 H 37.738949552178724 64.26699360949937 66.54866147164486 H 0.0 **** 0.06
18156 C 22.53269598335561 35.64625600083875 43.776646433947775 C 0.0 **** -0.24
18157 H 21.63527873783759 35.086687383744504 44.040739446645745 H 0.0 **** 0.06
18158 H 22.250249463728586 36.553493729272105 43.24278454243037 H 0.0 **** 0.06
18159 H 23.169157119194605 35.0321010785043 43.13892324968279 H 0.0 **** 0.06
18160 H 23.07531855305299 35.91215688771695 44.68436080387076 H 0.0 **** 0.06
18161 C 54.92861226679665 57.8648631263049 30.071583610069496 C 0.0 **** -0.24
18162 H 55.432551898776765 58.02333901619497 29.11737704114853 H 0.0 **** 0.06
18163 H 55.504254711163576 57.160061722431635 30.673035775620463 H 0.0 **** 0.06
18164 H 53.932405909366274 57.46182148138024 29.893282971331132 H 0.0 **** 0.06
18165 H 54.84753530167027 58.81426465898713 30.600990942911665 H 0.0 **** 0.06
18166 C 59.48026144820102 29.789765878115304 77.06531905796118 C 0.0 **** -0.24
18167 H 58.90775106160325 30.5306891526578 76.5069316986096 H 0.0 **** 0.06
18168 H 59.078940446113506 28.79579357114912 76.86650157217139 H 0.0 **** 0.06
18169 H 59.4094048830668 30.004695753996003 78.13108324752153 H 0.0 **** 0.06
18170 H 60.524702377905925 29.829405634374268 76.75513891024599 H 0.0 **** 0.06
18171 C 62.66436651189099 77.51439054651252 97.88543424503278 C 0.0 **** -0.24
18172 H 63.50707092817038 77.85862029507763 97.28636832069961 H 0.0 **** 0.06
18173 H 61.76573276083286 77.49141004350055 97.26881998128506 H 0.0 **** 0.06
18174 H 62.51269508661477 78.1955018951204 98.72392996147654 H 0.0 **** 0.06
18175 H 62.872589237621526 76.51440688831623 98.26434027992408 H 0.0 **** 0.06
18176 C 42.00338990176906 34.02297443322682 36.665044011412704 C 0.0 **** -0.24
18177 H 41.94853834251284 34.960216227042785 36.11220593557729 H 0.0 **** 0.06
18178 H 41.83333005263467 34.21468489820879 37.724891005367084 H 0.0 **** 0.06
18179 H 42.98983399550264 33.57869054589605 36.53003375354311 H 0.0 **** 0.06
18180 H 41.24190252332613 33.336956828801185 36.29262390508043 H 0.0 **** 0.06
18181 C 79.98483352566888 23.93471133957709 12.968534367686146 C 0.0 **** -0.24
18182 H 79.58254381944732 23.198332706348378 12.273196796087731 H 0.0 **** 0.06
18183 H 79.53269734873243 23.794058006962853 13.949895840412424 H 0.0 **** 0.06
18184 H 79.75992706101528 24.93786538589149 12.604358619833022 H 0.0 **** 0.06
18185 H 81.06555298461069 23.809378690352876 13.044145905977814 H 0.0 **** 0.06
18186 C 86.96702377567834 98.53047127190047 94.430977088061 C 0.0 **** -0.24
18187 H 86.19761718863259 98.41358116040169 93.66825627818642 H 0.0 **** 0.06
18188 H 87.34513027397546 97.54904946863297 94.71869504820319 H 0.0 **** 0.06
18189 H 86.54068212785694 99.0265605374471 95.30316349415492 H 0.0 **** 0.06
18190 H 87.78338027035932 99.13305160886091 94.03332415779782 H 0.0 **** 0.06
18191 C 54.40478594004935 52.15453718240428 70.2817458067424 C 0.0 **** -0.24
18192 H 54.89092895284074 53.08761000739548 69.99755587210852 H 0.0 **** 0.06
18193 H 54.42738464222401 51.461648037027686 69.4411735326923 H 0.0 **** 0.06
18194 H 53.370316186518096 52.35429934090979 70.56122796071293 H 0.0 **** 0.06
18195 H 54.931124664179265 51.71494245816007 71.12976523703406 H 0.0 **** 0.06
18196 C 103.17153693632893 78.70495014069311 48.889372959383 C 0.0 **** -0.24
18197 H 103.54591675829035 78.50246002625084 47.88539964477458 H 0.0 **** 0.06
18198 H 103.92613524671125 78.41842212697333 49.62197514107212 H 0.0 **** 0.06
18199 H 102.26137589885904 78.13001099874464 49.05996231895734 H 0.0 **** 0.06
18200 H 102.95348747383454 79.76875614539262 48.98805995182367 H 0.0 **** 0.06
18201 C 22.1981207727464 32.58032527514604 26.826465105556565 C 0.0 **** -0.24
18202 H 21.53011513154979 31.908703716983865 26.28621899283982 H 0.0 **** 0.06
18203 H 21.688354550129116 32.96498600257945 27.70945681362744 H 0.0 **** 0.06
18204 H 22.48022209668935 33.40986743637731 26.178538041159356 H 0.0 **** 0.06
18205 H 23.092041971249987 32.035824810591606 27.130144184773854 H 0.0 **** 0.06
18206 C 87.15153238501894 85.60418409174365 54.50434148425288 C 0.0 **** -0.24
18207 H 86.36995687521262 85.40931931962008 55.23956891183632 H 0.0 **** 0.06
18208 H 87.6239729179612 84.66378117490102 54.21797418066577 H 0.0 **** 0.06
18209 H 87.89873286747917 86.26924392479216 54.93764245783572 H 0.0 **** 0.06
18210 H 86.71312766056847 86.07444621192084 53.62438996439147 H 0.0 **** 0.06
18211 C 47.57174931285594 84.89346171257489 14.857003851527608 C 0.0 **** -0.24
18212 H 48.55921215962407 84.86836112197787 15.317405772834931 H 0.0 **** 0.06
18213 H 47.454105706881506 84.03201934046217 14.19929654229351 H 0.0 **** 0.06
18214 H 47.46498417919783 85.81144319006447 14.277976961911136 H 0.0 **** 0.06
18215 H 46.807647361364204 84.86431405387997 15.63462236270955 H 0.0 **** 0.06
18216 C 16.670168118655255 104.7638570594546 8.883169693381745 C 0.0 **** -0.24
18217 H 15.89811491835593 105.52735684446314 8.784468988675656 H 0.0 **** 0.06
18218 H 16.964362476637348 104.6785371849289 9.92915203189375 H 0.0 **** 0.06
18219 H 17.535778806506954 105.04503384887981 8.283968910763377 H 0.0 **** 0.06
18220 H 16.281344547041726 103.80703787709805 8.533900206923065 H 0.0 **** 0.06
18221 C 84.50946206781117 67.1550028178379 88.42983923808487 C 0.0 **** -0.24
18222 H 84.88084885341402 68.17773105796573 88.50094977201687 H 0.0 **** 0.06
18223 H 83.96165187207635 67.03266535460813 87.49546115669648 H 0.0 **** 0.06
18224 H 83.84559646994802 66.95096026237582 89.27026888720798 H 0.0 **** 0.06
18225 H 85.34968087943341 66.46109825057772 88.45283181031829 H 0.0 **** 0.06
18226 C 40.16539607191659 53.83948001176316 35.3134538235542 C 0.0 **** -0.24
18227 H 40.52315620559676 54.81928708106096 35.63043753981657 H 0.0 **** 0.06
18228 H 41.00156087418844 53.25175588605339 34.936223682992875 H 0.0 **** 0.06
18229 H 39.422802689679145 53.96298248811479 34.52553375066756 H 0.0 **** 0.06
18230 H 39.7129760274637 53.32606383416771 36.16195179146723 H 0.0 **** 0.06
18231 C 78.04999031418163 108.1711911891749 23.13260511681517 C 0.0 **** -0.24
18232 H 76.98969174763465 108.41958713051844 23.180010531221114 H 0.0 **** 0.06
18233 H 78.51331156031517 108.71072844870724 22.306398819497133 H 0.0 **** 0.06
18234 H 78.16496470982187 107.09784018871633 22.975947950619798 H 0.0 **** 0.06
18235 H 78.5316627115198 108.45442972927695 24.068439765794153 H 0.0 **** 0.06
18236 C 35.9710438752974 35.77798065940223 27.628138165553196 C 0.0 **** -0.24
18237 H 36.10606238730901 36.56920705708936 26.8897590486727 H 0.0 **** 0.06
18238 H 36.897873808191775 35.63866948226256 28.184737249957323 H 0.0 **** 0.06
18239 H 35.70686343645332 34.84983446505638 27.122428618670853 H 0.0 **** 0.06
18240 H 35.17273905302898 36.05711823325168 28.316010611965652 H 0.0 **** 0.06
18241 C 79.49055050109067 79.03788348565594 95.53206584875198 C 0.0 **** -0.24
18242 H 78.92623889192144 79.01486278815659 94.6001713890576 H 0.0 **** 0.06
18243 H 79.12684806405183 78.25440018363425 96.19636795051179 H 0.0 **** 0.06
18244 H 79.3614049631666 80.0088281300486 96.0108401352025 H 0.0 **** 0.06
18245 H 80.54740389323653 78.87436042923406 95.32063029166761 H 0.0 **** 0.06
18246 C 50.62391328953947 49.66923878332125 81.28665155196265 C 0.0 **** -0.24
18247 H 49.68404664072665 50.209418968824934 81.17207877460541 H 0.0 **** 0.06
18248 H 51.20767888719564 49.757269001123234 80.36981933114035 H 0.0 **** 0.06
18249 H 50.415974296391255 48.617829984461764 81.48577660914147 H 0.0 **** 0.06
18250 H 51.18659819484242 50.09197901618609 82.11795484877322 H 0.0 **** 0.06
18251 C 27.727224209857177 21.054346206412305 47.9000027625936 C 0.0 **** -0.24
18252 H 27.279308039282583 20.54326132889659 47.047935157750146 H 0.0 **** 0.06
18253 H 27.049730217830195 20.999208501565278 48.752836656208785 H 0.0 **** 0.06
18254 H 27.906400010758915 22.09875443039283 47.64355903620981 H 0.0 **** 0.06
18255 H 28.67346194690188 20.575219885188716 48.15462416536798 H 0.0 **** 0.06
18256 C 21.284534442447494 73.0303455044398 45.096287375564316 C 0.0 **** -0.24
18257 H 21.415208959052507 73.7162723531147 44.25934747974989 H 0.0 **** 0.06
18258 H 22.22880253649774 72.92829334482155 45.63151817412981 H 0.0 **** 0.06
18259 H 20.970999285963785 72.05576852292917 44.72150303871493 H 0.0 **** 0.06
18260 H 20.523999249979084 73.42255354474499 45.770336974797345 H 0.0 **** 0.06
18261 C 88.76679018687707 42.9357556994279 85.78476083628755 C 0.0 **** -0.24
18262 H 89.82069114703566 43.20473225423954 85.84996975513894 H 0.0 **** 0.06
18263 H 88.16250871394351 43.71544727941467 86.24778650885219 H 0.0 **** 0.06
18264 H 88.59979014125196 41.990465668050014 86.30172566585526 H 0.0 **** 0.06
18265 H 88.483256980526 42.8310483150834 84.73723796042435 H 0.0 **** 0.06
18266 C 12.986532726583476 8.926610263581466 75.02330647070184 C 0.0 **** -0.24
18267 H 12.933104152209623 9.57812457159852 75.89570166320574 H 0.0 **** 0.06
18268 H 14.023342508001761 8.638098142182471 74.84993950561208 H 0.0 **** 0.06
18269 H 12.6054221389943 9.45625130194645 74.15042163663627 H 0.0 **** 0.06
18270 H 12.385300170211309 8.03426665907343 75.19884618483431 H 0.0 **** 0.06
18271 C 7.5741051929178855 99.04906712005103 52.48372993191939 C 0.0 **** -0.24
18272 H 7.092373094169076 98.39524682271262 53.211503331800046 H 0.0 **** 0.06
18273 H 6.812318631146091 99.59385860829849 51.92557282197179 H 0.0 **** 0.06
18274 H 8.169758974136508 98.44841861714798 51.79573803337671 H 0.0 **** 0.06
18275 H 8.220132279112368 99.75585593214963 53.00323679158524 H 0.0 **** 0.06
18276 C 1.3178431916817885 33.008751036618044 63.669226547227055 C 0.0 **** -0.24
18277 H 1.171991772357302 31.98024829498125 63.99783617329007 H 0.0 **** 0.06
18278 H 0.41439526130093896 33.585409597179655 63.86634219968619 H 0.0 **** 0.06
18279 H 1.5319221150118096 33.0216737882254 62.60030835381485 H 0.0 **** 0.06
18280 H 2.1553537069273148 33.44808767687863 64.21165566224494 H 0.0 **** 0.06
18281 C 12.551103231325229 32.93042098344665 103.94434660950064 C 0.0 **** -0.24
18282 H 13.611523454982418 32.78078863641673 103.74209934110377 H 0.0 **** 0.06
18283 H 12.357063669271824 32.76641635565119 105.00431405835391 H 0.0 **** 0.06
18284 H 11.96532670755444 32.22518397477785 103.35421567393709 H 0.0 **** 0.06
18285 H 12.270733083262627 33.94901841890356 103.67582525972217 H 0.0 **** 0.06
18286 C 56.16538581712575 97.36650104738305 48.7185990599653 C 0.0 **** -0.24
18287 H 55.56973224965003 97.17666270439213 49.61183314152419 H 0.0 **** 0.06
18288 H 56.585609258597515 98.371078477624 48.77070786792598 H 0.0 **** 0.06
18289 H 55.533177052691826 97.282161983968 47.83537836087072 H 0.0 **** 0.06
18290 H 56.973229265274256 96.63671922443115 48.658838284601416 H 0.0 **** 0.06
18291 C 44.90495058041259 19.185635742375553 63.427596935353705 C 0.0 **** -0.24
18292 H 43.97822450165417 18.612694563797675 63.44439001795169 H 0.0 **** 0.06
18293 H 44.903131014824936 19.852297102792477 62.56438128655148 H 0.0 **** 0.06
18294 H 45.75251125589241 18.50419785320139 63.35930248349105 H 0.0 **** 0.06
18295 H 44.98421455166212 19.77453761024651 64.34151634527097 H 0.0 **** 0.06
18296 C 61.7432833902144 11.980052986614297 64.15617869820485 C 0.0 **** -0.24
18297 H 62.38545619309588 11.189851613166496 63.7656869534749 H 0.0 **** 0.06
18298 H 61.63529819893887 11.85916096960267 65.23450482215878 H 0.0 **** 0.06
18299 H 60.76314229640985 11.918894980599987 63.68232952404638 H 0.0 **** 0.06
18300 H 62.19038710859326 12.950744450671223 63.941699766725534 H 0.0 **** 0.06
18301 C 27.09695748043464 45.58824416162989 55.34960072929533 C 0.0 **** -0.24
18302 H 28.071377629047277 45.76047653668326 54.89236528419564 H 0.0 **** 0.06
18303 H 26.43949151128004 46.4298497447261 55.13150578106697 H 0.0 **** 0.06
18304 H 27.214021008970917 45.48801584249247 56.42863375735645 H 0.0 **** 0.06
18305 H 26.662375226409097 44.67389592365939 54.94483232795999 H 0.0 **** 0.06
18306 C 41.16674122689125 45.86297441058984 3.978751585540948 C 0.0 **** -0.24
18307 H 41.70105837702772 45.02442405647144 3.53203091680723 H 0.0 **** 0.06
18308 H 41.10873516702674 46.680379081361735 3.260470490239186 H 0.0 **** 0.06
18309 H 41.69691898525434 46.19785225919022 4.87027008289985 H 0.0 **** 0.06
18310 H 40.159802324092254 45.54685887333513 4.251892381145296 H 0.0 **** 0.06
18311 C 104.84581910592877 100.27836458777665 86.27608640130035 C 0.0 **** -0.24
18312 H 104.57812146609155 100.40925349210278 87.32455763641167 H 0.0 **** 0.06
18313 H 104.43025536266956 99.3392814316715 85.90947692561582 H 0.0 **** 0.06
18314 H 105.93184031973001 100.25732532016434 86.17843804753565 H 0.0 **** 0.06
18315 H 104.44441296837073 101.10615486801595 85.6921641550453 H 0.0 **** 0.06
18316 C 77.14700595444077 5.714082719536103 7.840549831189492 C 0.0 **** -0.24
18317 H 76.085301037867 5.466124836560841 7.8496852284765595 H 0.0 **** 0.06
18318 H 77.34530391857075 6.492153604259512 8.577800457942445 H 0.0 **** 0.06
18319 H 77.42748397201649 6.071555192377158 6.849724225708414 H 0.0 **** 0.06
18320 H 77.72881298279637 4.824782415111629 8.08364740603892 H 0.0 **** 0.06
18321 C 20.087546680030727 53.45210673092504 96.0111912043219 C 0.0 **** -0.24
18322 H 19.67904603585977 52.8317449147286 96.80926659610503 H 0.0 **** 0.06
18323 H 21.112131201979565 53.7313768906109 96.25652687500082 H 0.0 **** 0.06
18324 H 19.480779390059595 54.351527809220215 95.90500712922884 H 0.0 **** 0.06
18325 H 20.07622223585166 52.89420629244407 95.07485006899805 H 0.0 **** 0.06
18326 C 74.2351726535324 80.16074534107112 78.24390288426252 C 0.0 **** -0.24
18327 H 74.1086188406922 80.74580884481988 77.33385804316208 H 0.0 **** 0.06
18328 H 75.27534695399723 79.84248939856809 78.3293169583626 H 0.0 **** 0.06
18329 H 73.58865258348709 79.28386485540472 78.20574152729051 H 0.0 **** 0.06
18330 H 73.97010833093105 80.77028883033451 79.10745280991404 H 0.0 **** 0.06
18331 C 93.77003680378317 97.65651209428924 61.8037084169726 C 0.0 **** -0.24
18332 H 94.1832302585708 98.65885047537269 61.69534903801639 H 0.0 **** 0.06
18333 H 93.12582653774399 97.4354721689804 60.95212847649901 H 0.0 **** 0.06
18334 H 93.18791578861186 97.59969470995054 62.72419026641492 H 0.0 **** 0.06
18335 H 94.58277919984218 96.93072727424375 61.84278644858142 H 0.0 **** 0.06
18336 C 81.99264011533577 27.433301855095294 20.21708439619432 C 0.0 **** -0.24
18337 H 82.44513893774848 28.038652125630904 21.002990730425704 H 0.0 **** 0.06
18338 H 81.39240047396746 28.070874320381762 19.568281213862363 H 0.0 **** 0.06
18339 H 81.35641725109133 26.671702747802783 20.668420358248714 H 0.0 **** 0.06
18340 H 82.7771455063272 26.95309996612383 19.632575815960386 H 0.0 **** 0.06
18341 C 38.07366879515055 89.65051772449186 74.89054558012401 C 0.0 **** -0.24
18342 H 38.90675994346395 89.65788227237962 75.59405735047136 H 0.0 **** 0.06
18343 H 37.69391112586928 88.63406885270632 74.78901899910596 H 0.0 **** 0.06
18344 H 38.41446337902157 90.01061336874557 73.91999675307238 H 0.0 **** 0.06
18345 H 37.28105082531666 90.3003074753565 75.26055079738057 H 0.0 **** 0.06
18346 C 95.59974266729569 86.7423086261982 53.72662216110362 C 0.0 **** -0.24
18347 H 95.84768998413404 85.68046903331572 53.7370009501538 H 0.0 **** 0.06
18348 H 95.69791717780242 87.14729253279674 54.73437546396457 H 0.0 **** 0.06
18349 H 94.57430812713574 86.87129613842465 53.38103561163794 H 0.0 **** 0.06
18350 H 96.27895874285531 87.2667876709861 53.05565938765113 H 0.0 **** 0.06
18351 C 47.80934104986872 63.218813533258185 33.52409220422879 C 0.0 **** -0.24
18352 H 47.790579366190514 63.144112542412245 32.436964516931624 H 0.0 **** 0.06
18353 H 48.36186270924273 64.11152944600508 33.81744009824229 H 0.0 **** 0.06
18354 H 48.295415963384784 62.336682963812905 33.94041501487061 H 0.0 **** 0.06
18355 H 46.78792682364485 63.28306496961932 33.89997200465828 H 0.0 **** 0.06
18356 C 23.691327156504897 6.7273658050934415 28.56720959115367 C 0.0 **** -0.24
18357 H 24.51824017639857 6.487127281272166 27.89774021087362 H 0.0 **** 0.06
18358 H 23.658379374304477 7.804473958056377 28.731219761563665 H 0.0 **** 0.06
18359 H 23.836837439308486 6.218442937515491 29.5207331615091 H 0.0 **** 0.06
18360 H 22.753999408951817 6.39891442578417 28.118780977943118 H 0.0 **** 0.06
18361 C 77.43749221759242 63.3492137655074 39.82194203087829 C 0.0 **** -0.24
18362 H 77.38519715297087 64.28433361481608 39.26410068222043 H 0.0 **** 0.06
18363 H 78.47930144620761 63.114512984489764 40.04197379145995 H 0.0 **** 0.06
18364 H 77.00259331489735 62.54605395619801 39.22594102941403 H 0.0 **** 0.06
18365 H 76.88267429303414 63.451613273143025 40.754066608549465 H 0.0 **** 0.06
18366 C 68.27637920457767 92.21250571824976 21.653259708898986 C 0.0 **** -0.24
18367 H 67.71403422856005 91.34721165321781 22.00595537742592 H 0.0 **** 0.06
18368 H 69.25603114585954 92.22700249696157 22.131356770819224 H 0.0 **** 0.06
18369 H 67.73499191329714 93.12472037369022 21.90530954402925 H 0.0 **** 0.06
18370 H 68.39962621179782 92.14922766220303 20.572377709646673 H 0.0 **** 0.06
18371 C 13.66474626567901 14.122322049744682 82.85243215065469 C 0.0 **** -0.24
18372 H 13.782577001795115 13.038841039972695 82.82848018604173 H 0.0 **** 0.06
18373 H 13.615709967992387 14.504887130268287 81.83295960902834 H 0.0 **** 0.06
18374 H 14.513947630520331 14.569052349486341 83.36845917484598 H 0.0 **** 0.06
18375 H 12.744724237112855 14.375663189409579 83.38025565581376 H 0.0 **** 0.06
18376 C 52.711194273634625 54.005976182585925 54.1491436066474 C 0.0 **** -0.24
18377 H 52.47231364142402 52.94325878526726 54.18212256136705 H 0.0 **** 0.06
18378 H 52.745959980180025 54.40232344675164 55.16368046133568 H 0.0 **** 0.06
18379 H 51.9461080182985 54.53262830076204 53.578096789921304 H 0.0 **** 0.06
18380 H 53.681230007246526 54.145156720744694 53.67125518124471 H 0.0 **** 0.06
18381 C 24.069711271147582 27.034810692357865 6.621114871988169 C 0.0 **** -0.24
18382 H 24.709831865273856 26.23022941760746 6.984762396636171 H 0.0 **** 0.06
18383 H 24.118023284985867 27.071913122275205 5.533005869176861 H 0.0 **** 0.06
18384 H 24.41138203217608 27.984058364337756 7.0335440198267065 H 0.0 **** 0.06
18385 H 23.042069913863372 26.85100957154272 6.934046549743783 H 0.0 **** 0.06
18386 C 11.366047472295207 108.36171098860433 63.008867025847806 C 0.0 **** -0.24
18387 H 10.799678399359621 108.70201793462613 62.14174469426027 H 0.0 **** 0.06
18388 H 10.678994023929363 108.1186906561525 63.81910558018626 H 0.0 **** 0.06
18389 H 12.04518111332331 109.15153413915095 63.33140353524453 H 0.0 **** 0.06
18390 H 11.94157083965581 107.47619450679863 62.74039683249099 H 0.0 **** 0.06
18391 C 76.09357329835137 0.9941783025276436 27.43200420521734 C 0.0 **** -0.24
18392 H 76.31578520784376 0.19318831061536912 26.72617007732137 H 0.0 **** 0.06
18393 H 75.52295311872098 0.5911235049496213 28.26928991146724 H 0.0 **** 0.06
18394 H 75.51131977682337 1.7676178392673023 26.932950207286694 H 0.0 **** 0.06
18395 H 77.0262391938387 1.4217000415565622 27.800296700621175 H 0.0 **** 0.06
18396 C 68.81301113589994 19.85524465759863 98.05988880853306 C 0.0 **** -0.24
18397 H 68.92879289116966 20.247239352437198 99.07056513108648 H 0.0 **** 0.06
18398 H 68.86634055344533 18.766199276179755 98.08466908113991 H 0.0 **** 0.06
18399 H 69.60910941725625 20.244270764014047 97.4257941523006 H 0.0 **** 0.06
18400 H 67.8471472487061 20.1628878752666 97.66008456941722 H 0.0 **** 0.06
18401 C 66.91311720653385 107.71626378495785 2.6821307241942804 C 0.0 **** -0.24
18402 H 66.10306617870896 108.17296812083391 3.2516958196218866 H 0.0 **** 0.06
18403 H 67.86009056953105 108.17522772850484 2.9658214024779 H 0.0 **** 0.06
18404 H 66.7395746712117 107.86847644891516 1.6174866100289051 H 0.0 **** 0.06
18405 H 66.94886768694352 106.64776796933867 2.895724924340854 H 0.0 **** 0.06
18406 C 51.08184811742302 18.882708377406345 5.035555036072266 C 0.0 **** -0.24
18407 H 51.654414120335616 18.519163945855453 5.888289129930229 H 0.0 **** 0.06
18408 H 51.7594809212074 19.10145272676658 4.210195984725647 H 0.0 **** 0.06
18409 H 50.54710061481393 19.789735845164557 5.317822915457416 H 0.0 **** 0.06
18410 H 50.36646100834298 18.12086413574403 4.727271959329288 H 0.0 **** 0.06
18411 C 104.94077866449557 34.62662896912485 75.23791010243522 C 0.0 **** -0.24
18412 H 104.36167724489296 33.7035380937877 75.24027932687775 H 0.0 **** 0.06
18413 H 105.85067766580923 34.48293805070145 74.65435407241895 H 0.0 **** 0.06
18414 H 105.20318438957344 34.89356865590037 76.26081880843861 H 0.0 **** 0.06
18415 H 104.34654947935113 35.425895321962855 74.79428653734203 H 0.0 **** 0.06
18416 C 17.62905623352114 33.847243645058654 91.25190959533249 C 0.0 **** -0.24
18417 H 17.852371688384125 32.83930297772727 90.90335882080771 H 0.0 **** 0.06
18418 H 16.925982940251117 33.79658271248974 92.08291816652519 H 0.0 **** 0.06
18419 H 17.1895604470634 34.423429259090625 90.43733517656688 H 0.0 **** 0.06
18420 H 18.549227139199473 34.32962028645761 91.58175523852235 H 0.0 **** 0.06
18421 C 20.333958872968253 28.65995599752062 45.435950615155306 C 0.0 **** -0.24
18422 H 21.331692635405915 28.926158590519805 45.08836129548119 H 0.0 **** 0.06
18423 H 19.79759311505805 29.56306381203335 45.727182331670576 H 0.0 **** 0.06
18424 H 20.414658480217952 27.991985044023124 46.294327753530304 H 0.0 **** 0.06
18425 H 19.79135598751779 28.157887193027562 44.63501810756861 H 0.0 **** 0.06
18426 C 65.57733710576358 25.542159970315367 15.085170518436811 C 0.0 **** -0.24
18427 H 65.76742727126866 26.58059867621364 15.354991952515263 H 0.0 **** 0.06
18428 H 64.54777561150007 25.43792129395237 14.741236886388236 H 0.0 **** 0.06
18429 H 65.73496632772171 24.906082771209668 15.957046520589614 H 0.0 **** 0.06
18430 H 66.2586876209541 25.24302504997513 14.289339137456835 H 0.0 **** 0.06
18431 C 91.97598625005793 40.741012394135396 109.46694342594532 C 0.0 **** -0.24
18432 H 92.87819491779845 40.152890856215436 109.64312963104021 H 0.0 **** 0.06
18433 H 91.72413207149191 40.709921486307735 108.40670255161263 H 0.0 **** 0.06
18434 H 92.15129254933765 41.773471151721196 109.76959915218617 H 0.0 **** 0.06
18435 H 91.15337367690222 40.326176300011355 110.04876847964465 H 0.0 **** 0.06
18436 C 35.9993822055668 43.8915291089845 42.675390052366936 C 0.0 **** -0.24
18437 H 35.987851423075824 44.34599316137633 43.666462889638865 H 0.0 **** 0.06
18438 H 36.40805969136753 42.88273933869033 42.74418569108889 H 0.0 **** 0.06
18439 H 36.61828973966709 44.490475993000416 42.00851984139062 H 0.0 **** 0.06
18440 H 34.982298237235426 43.84575611220859 42.28496343784528 H 0.0 **** 0.06
18441 C 37.91827201707076 80.92390754688509 101.92019457357195 C 0.0 **** -0.24
18442 H 37.26695956483735 81.6424533227036 102.41833104921545 H 0.0 **** 0.06
18443 H 38.54031804464489 81.44476284345502 101.19064232689232 H 0.0 **** 0.06
18444 H 37.31219019529331 80.17429550356688 101.41295262328929 H 0.0 **** 0.06
18445 H 38.554654717819176 80.43769759775729 102.65919983581549 H 0.0 **** 0.06
18446 C 1.3992301695892735 80.43619900675003 82.81960657154684 C 0.0 **** -0.24
18447 H 0.9899178255420651 79.98606503007298 81.91588171817165 H 0.0 **** 0.06
18448 H 0.603520193975271 80.94257516433674 83.36629999754632 H 0.0 **** 0.06
18449 H 2.170955041027696 81.15740368585065 82.54934664414401 H 0.0 **** 0.06
18450 H 1.8335520820908613 79.6580125169857 83.44808264967173 H 0.0 **** 0.06
18451 C 65.19063737038555 31.427897279066457 56.09052572213096 C 0.0 **** -0.24
18452 H 64.22662824635042 31.89154407988147 56.29902008375558 H 0.0 **** 0.06
18453 H 65.1180909883954 30.83452701381964 55.17848314245336 H 0.0 **** 0.06
18454 H 65.47038543636111 30.782312636350923 56.92311587283996 H 0.0 **** 0.06
18455 H 65.94629159905715 32.20283650874711 55.96221463284033 H 0.0 **** 0.06
18456 C 50.99318701800715 5.824387715214982 10.220065132452035 C 0.0 **** -0.24
18457 H 51.45553523933156 5.890765577462247 9.235845693807804 H 0.0 **** 0.06
18458 H 51.70962192437856 6.1386034264149885 10.979721912827529 H 0.0 **** 0.06
18459 H 50.69037537032757 4.794735449363571 10.410091907296206 H 0.0 **** 0.06
18460 H 50.11790996321563 6.472668730851808 10.255556574113754 H 0.0 **** 0.06
18461 C 67.96858668578959 61.51870384168214 70.63729146249669 C 0.0 **** -0.24
18462 H 67.54330747996981 62.24797995608253 69.94868217613582 H 0.0 **** 0.06
18463 H 68.36696808312651 60.67504798281274 70.07231536159134 H 0.0 **** 0.06
18464 H 67.19269309823565 61.166421671251896 71.31718210776272 H 0.0 **** 0.06
18465 H 68.7702510133732 61.98461175922955 71.21058457806727 H 0.0 **** 0.06
18466 C 24.285945193286267 12.290339290132067 109.14998975395474 C 0.0 **** -0.24
18467 H 25.034343794020174 12.370491835175315 109.93912854077504 H 0.0 **** 0.06
18468 H 24.621591381812806 11.570459041620339 108.40298107451125 H 0.0 **** 0.06
18469 H 24.149215207347424 13.265272521475339 108.68034941239719 H 0.0 **** 0.06
18470 H 23.340735011369816 11.958127723743189 109.57827938342122 H 0.0 **** 0.06
18471 C 47.696647445851106 105.72887604445675 99.84037006178082 C 0.0 **** -0.24
18472 H 48.786285043790684 105.70322076020834 99.80436127856836 H 0.0 **** 0.06
18473 H 47.29807273162073 105.60306693419884 98.8332056381575 H 0.0 **** 0.06
18474 H 47.36975442546828 106.68649011930323 100.2444047780142 H 0.0 **** 0.06
18475 H 47.335283551218716 104.92275903836365 100.47805048258138 H 0.0 **** 0.06
18476 C 36.91601954336369 102.58325403597814 97.0570259505532 C 0.0 **** -0.24
18477 H 37.06423107479111 101.60716242443738 97.51922870213218 H 0.0 **** 0.06
18478 H 36.756982058719984 103.33284609470257 97.83184183738598 H 0.0 **** 0.06
18479 H 36.04558598004081 102.545847190519 96.40248032767133 H 0.0 **** 0.06
18480 H 37.79835861010304 102.84554180754537 96.47306467556254 H 0.0 **** 0.06
18481 C 79.03520717165475 40.73916330697264 43.29250868910205 C 0.0 **** -0.24
18482 H 79.43461788472109 41.02081818466314 44.26668447627432 H 0.0 **** 0.06
18483 H 79.58978029804666 39.884796648871486 42.90503081738359 H 0.0 **** 0.06
18484 H 79.13171474109356 41.57851255061391 42.60351230225217 H 0.0 **** 0.06
18485 H 77.9825608817838 40.47221314288157 43.3953160356219 H 0.0 **** 0.06
18486 C 89.68382413809938 19.306832245209364 85.40273656480593 C 0.0 **** -0.24
18487 H 88.95074783751512 18.686337381871155 84.88678099374886 H 0.0 **** 0.06
18488 H 89.2348198983421 19.726593617336775 86.30285902460452 H 0.0 **** 0.06
18489 H 90.00414312315321 20.11414137086119 84.7447946646023 H 0.0 **** 0.06
18490 H 90.54570531677997 18.697185500667842 85.6757669498794 H 0.0 **** 0.06
18491 C 83.76714799278601 44.03656215844066 32.482898669566 C 0.0 **** -0.24
18492 H 84.60443955305102 43.78074439459874 33.132656322077935 H 0.0 **** 0.06
18493 H 83.26364370920416 44.922817977459054 32.870163391030246 H 0.0 **** 0.06
18494 H 83.06474490402698 43.20420266058651 32.44980198992698 H 0.0 **** 0.06
18495 H 84.13706835860194 44.24027977881402 31.477937512769643 H 0.0 **** 0.06
18496 C 97.88396601710356 17.815852046419664 101.23497169001236 C 0.0 **** -0.24
18497 H 97.33214475363104 18.754971467777438 101.19685530053557 H 0.0 **** 0.06
18498 H 98.00146620573818 17.505224289358225 102.27323802144012 H 0.0 **** 0.06
18499 H 98.8659202120327 17.95317586254896 100.7824067971821 H 0.0 **** 0.06
18500 H 97.33400840124463 17.050014118230052 100.68661429847941 H 0.0 **** 0.06
18501 C 63.568982464460476 29.36734548467271 81.42602754210444 C 0.0 **** -0.24
18502 H 63.056356333661654 30.30007779908391 81.19504346209041 H 0.0 **** 0.06
18503 H 64.45895441831891 29.580255305171505 82.01935650506023 H 0.0 **** 0.06
18504 H 63.859747895045075 28.873070149739704 80.49874320004524 H 0.0 **** 0.06
18505 H 62.902558677030754 28.7158313252377 81.9913287906685 H 0.0 **** 0.06
18506 C 91.03255421663795 33.596803837265725 55.49952797992159 C 0.0 **** -0.24
18507 H 90.67956309829117 34.62695721540916 55.442984222939444 H 0.0 **** 0.06
18508 H 91.13215381487038 33.19120269702654 54.491980178650515 H 0.0 **** 0.06
18509 H 90.31565586822717 32.998429260938536 56.06243252348025 H 0.0 **** 0.06
18510 H 92.00016771873385 33.57098508817367 55.99987318648018 H 0.0 **** 0.06
18511 C 106.23061583830986 107.57977425773899 49.278051299331764 C 0.0 **** -0.24
18512 H 106.1833110106097 106.4994286444234 49.14959756244275 H 0.0 **** 0.06
18513 H 106.11638930350112 107.82590141458104 50.33418795324047 H 0.0 **** 0.06
18514 H 105.42976623960855 108.04935030890448 48.70740422284405 H 0.0 **** 0.06
18515 H 107.19334414815627 107.94607247460624 48.92247760952341 H 0.0 **** 0.06
18516 C 94.02445070469093 69.6008595722397 56.13998141044368 C 0.0 **** -0.24
18517 H 94.69633992833815 68.94742931025087 56.69524671549018 H 0.0 **** 0.06
18518 H 93.69743158162638 69.09757816671271 55.229641240251766 H 0.0 **** 0.06
18519 H 94.54796348508735 70.52076707968524 55.878614934250905 H 0.0 **** 0.06
18520 H 93.15738824730504 69.8393230545835 56.75571325980907 H 0.0 **** 0.06
18521 C 51.41555952280153 49.6632457535462 21.481585374273877 C 0.0 **** -0.24
18522 H 50.95320182632029 50.36836833206546 22.17277305019053 H 0.0 **** 0.06
18523 H 51.361051396731796 50.05921288652767 20.467952939417117 H 0.0 **** 0.06
18524 H 50.888723315527145 48.7104535303711 21.52980812093429 H 0.0 **** 0.06
18525 H 52.45949190785282 49.51648030561585 21.75906321713893 H 0.0 **** 0.06
18526 C 59.87336158633451 73.95716546042382 50.242820198531376 C 0.0 **** -0.24
18527 H 59.57136831119669 72.91160728084157 50.28932763375633 H 0.0 **** 0.06
18528 H 60.55132118333671 74.10196203047349 49.402543738080226 H 0.0 **** 0.06
18529 H 60.37762164405808 74.23127919718985 51.16949776871394 H 0.0 **** 0.06
18530 H 58.99082587606824 74.58388907937041 50.11072501180632 H 0.0 **** 0.06
18531 C 69.60129638466424 38.026080947878484 101.86311898247592 C 0.0 **** -0.24
18532 H 69.02185555546637 38.463653058171815 102.67623634846632 H 0.0 **** 0.06
18533 H 70.65197654706662 37.98191521502369 102.1491774174213 H 0.0 **** 0.06
18534 H 69.49263310228494 38.63850494948451 100.96853195496124 H 0.0 **** 0.06
18535 H 69.23753423017413 37.01867864056143 101.65998708821297 H 0.0 **** 0.06
18536 C 84.20320344876262 16.00706194121635 92.16072399975835 C 0.0 **** -0.24
18537 H 84.69693592554034 15.14100945281226 92.60330085278093 H 0.0 **** 0.06
18538 H 84.15596762302626 16.812033505708932 92.89469570302836 H 0.0 **** 0.06
18539 H 83.1926317716609 15.731396917258952 91.85693523390972 H 0.0 **** 0.06
18540 H 84.76674279964871 16.340103537565856 91.28969385500574 H 0.0 **** 0.06
18541 C 104.85099733769829 3.5229683799371685 54.83310501435818 C 0.0 **** -0.24
18542 H 105.72735750759847 3.051515256220952 55.27733428390542 H 0.0 **** 0.06
18543 H 104.84782295913647 3.3443164886605956 53.757323277944124 H 0.0 **** 0.06
18544 H 104.88093373570189 4.597019670245174 55.022579588320696 H 0.0 **** 0.06
18545 H 103.94879111015683 3.101061922024442 55.27520307346015 H 0.0 **** 0.06
18546 C 67.15604961646179 1.4706539183717169 100.96543934864928 C 0.0 **** -0.24
18547 H 67.41590148131584 1.3471614097103188 102.0172456615689 H 0.0 **** 0.06
18548 H 67.91226977671698 2.0853845860670344 100.47578823915921 H 0.0 **** 0.06
18549 H 66.18464566354095 1.9576344189046226 100.88579534732781 H 0.0 **** 0.06
18550 H 67.1137823103162 0.4931416271794955 100.48486150155048 H 0.0 **** 0.06
18551 C 86.39505746572496 90.449543355286 108.97234119535756 C 0.0 **** -0.24
18552 H 86.84542682667791 91.13838687810585 108.25884079606041 H 0.0 **** 0.06
18553 H 85.81688772022557 89.69676882610962 108.43580866853455 H 0.0 **** 0.06
18554 H 85.73649929800163 91.0008931479282 109.64382494993704 H 0.0 **** 0.06
18555 H 87.17869761738046 89.96226815688728 109.55215136909369 H 0.0 **** 0.06
18556 C 15.034994133822238 95.00502392815356 90.31858456536963 C 0.0 **** -0.24
18557 H 16.045363207281582 95.37938778279472 90.4852307050894 H 0.0 **** 0.06
18558 H 15.085324797075316 94.03300899184107 89.82874519277965 H 0.0 **** 0.06
18559 H 14.48815370859137 95.70438548421025 89.68664881236737 H 0.0 **** 0.06
18560 H 14.523770531204946 94.90398655142198 91.27628272853894 H 0.0 **** 0.06
18561 C 63.18965231454558 63.85629462331144 63.95079895188225 C 0.0 **** -0.24
18562 H 63.385220403588505 62.83563144455252 64.28261179124685 H 0.0 **** 0.06
18563 H 63.71852296877802 64.5560381735969 64.59820197686423 H 0.0 **** 0.06
18564 H 62.11891933849216 64.05412590781452 63.99746290378904 H 0.0 **** 0.06
18565 H 63.5373049955719 63.976002394328475 62.924066470095 H 0.0 **** 0.06
18566 C 70.11967860022725 105.8743745240294 81.7968702643222 C 0.0 **** -0.24
18567 H 69.52066165205792 106.72450362707298 81.4707291020915 H 0.0 **** 0.06
18568 H 70.9109568439049 106.22198379147463 82.46071239817456 H 0.0 **** 0.06
18569 H 70.562272420424 105.38721469917061 80.9276045310259 H 0.0 **** 0.06
18570 H 69.48493016905564 105.16367307641474 82.32671059503227 H 0.0 **** 0.06
18571 C 60.28302162101646 44.01332506455307 57.82575894067057 C 0.0 **** -0.24
18572 H 61.235257966923925 43.74391674562446 58.28097744433012 H 0.0 **** 0.06
18573 H 59.46840497900371 43.72483105896039 58.49171457641779 H 0.0 **** 0.06
18574 H 60.17526062573417 43.49390421537829 56.873025261891655 H 0.0 **** 0.06
18575 H 60.25150858338631 45.08976756368119 57.65889578948733 H 0.0 **** 0.06
18576 C 27.8973101720712 15.841420032519537 20.688097044019685 C 0.0 **** -0.24
18577 H 28.73317610524245 16.53069690272028 20.8060859466884 H 0.0 **** 0.06
18578 H 26.9593655750283 16.382692184067082 20.816752832491147 H 0.0 **** 0.06
18579 H 27.968483633111816 15.052805733769333 21.436442976693172 H 0.0 **** 0.06
18580 H 27.928237348836774 15.400559877086309 19.691419701533448 H 0.0 **** 0.06
18581 C 41.69818851260963 106.09349276043969 0.23314202405236983 C 0.0 **** -0.24
18582 H 42.41814129364992 105.43096399935965 -0.2472624880824128 H 0.0 **** 0.06
18583 H 42.12367735725175 107.09362490285571 0.31629736024160593 H 0.0 **** 0.06
18584 H 41.46401266588927 105.71405423190045 1.2283907367437337 H 0.0 **** 0.06
18585 H 40.786849876396495 106.13337386947397 -0.36377276646203427 H 0.0 **** 0.06
18586 C 20.114572497551478 84.50491854351444 65.03681887905856 C 0.0 **** -0.24
18587 H 19.3472036203203 84.99357774910521 65.63688806816839 H 0.0 **** 0.06
18588 H 19.647590333761798 83.78471730959302 64.36485257445685 H 0.0 **** 0.06
18589 H 20.81498661245331 83.98800288315209 65.69359142876769 H 0.0 **** 0.06
18590 H 20.64961619548899 85.25274810360978 64.45256038057539 H 0.0 **** 0.06
18591 C 91.26350074571695 5.348328478657535 13.724945694074563 C 0.0 **** -0.24
18592 H 91.64132711128474 5.637521817598241 14.70606972165318 H 0.0 **** 0.06
18593 H 90.18846715872832 5.521325110631693 13.683863138402629 H 0.0 **** 0.06
18594 H 91.46947969533738 4.291366117177077 13.554592744161042 H 0.0 **** 0.06
18595 H 91.75755446752873 5.9436802143901275 12.95608278538566 H 0.0 **** 0.06
18596 C 80.9043348085157 83.88858968939273 61.24934823742751 C 0.0 **** -0.24
18597 H 80.43930279563685 82.90324595742842 61.2730083536743 H 0.0 **** 0.06
18598 H 80.33166375139473 84.57539114256286 61.871894977449756 H 0.0 **** 0.06
18599 H 80.92364676318695 84.25610954679047 60.22346468888247 H 0.0 **** 0.06
18600 H 81.9237948199522 83.81705046282498 61.627886568277404 H 0.0 **** 0.06
18601 C 48.18742046845114 107.15310865314069 38.20610596769518 C 0.0 **** -0.24
18602 H 47.80343190899359 107.50112805732307 37.247284746633966 H 0.0 **** 0.06
18603 H 47.37509653604221 106.71071425836264 38.78289006905413 H 0.0 **** 0.06
18604 H 48.60778913835014 107.99435020203254 38.75573004005548 H 0.0 **** 0.06
18605 H 48.96210727457674 106.40509709438791 38.03604730893687 H 0.0 **** 0.06
18606 C 15.91586438468704 73.39349147053531 30.75057360807824 C 0.0 **** -0.24
18607 H 16.96809718390307 73.35393205524898 30.469992030554806 H 0.0 **** 0.06
18608 H 15.456287663478832 74.28033198735514 30.31081555403364 H 0.0 **** 0.06
18609 H 15.830966417904648 73.44042366488995 31.835882102553512 H 0.0 **** 0.06
18610 H 15.408331023091819 72.50189637667069 30.38415735037779 H 0.0 **** 0.06
18611 C 0.44555343975872574 14.686763665289831 65.5955007070656 C 0.0 **** -0.24
18612 H 1.368459795888981 14.169654602974674 65.85961806566738 H 0.0 **** 0.06
18613 H 0.1095459119506188 15.283573599916878 66.44393323064274 H 0.0 **** 0.06
18614 H -0.3198837805805965 13.955492089019103 65.33836156008681 H 0.0 **** 0.06
18615 H 0.6269802772812625 15.338967502616114 64.7405964011472 H 0.0 **** 0.06
18616 C 61.63540564462042 57.311050698731606 85.57589030747125 C 0.0 **** -0.24
18617 H 61.65709321829843 56.969107437673436 84.54106262776247 H 0.0 **** 0.06
18618 H 61.08174004899652 58.24846607768553 85.63577951660143 H 0.0 **** 0.06
18619 H 62.654375967944574 57.466252905710114 85.92896192373561 H 0.0 **** 0.06
18620 H 61.146256585874326 56.5592364977068 86.19601087259493 H 0.0 **** 0.06
18621 C 21.770570407907996 81.34075747602299 100.86741668600683 C 0.0 **** -0.24
18622 H 21.70164813996334 80.48286367464323 101.53708889230717 H 0.0 **** 0.06
18623 H 21.089094014475307 82.12132247901019 101.20584846768338 H 0.0 **** 0.06
18624 H 21.501611171586973 81.03543627744227 99.85663099364544 H 0.0 **** 0.06
18625 H 22.791995737901914 81.72356646928256 100.872266543938 H 0.0 **** 0.06
18626 C 66.50209754671565 79.30654444971356 90.25303774847488 C 0.0 **** -0.24
18627 H 66.25441929282178 78.32319714058502 89.85308722134998 H 0.0 **** 0.06
18628 H 67.5837955274867 79.43552489748885 90.25418523200133 H 0.0 **** 0.06
18629 H 66.12430589898486 79.3891829365466 91.27270645597932 H 0.0 **** 0.06
18630 H 66.04385477516814 80.07607691131636 89.63251766655426 H 0.0 **** 0.06
18631 C 57.82247699688372 24.007251323850227 59.52354361251645 C 0.0 **** -0.24
18632 H 57.60565996439319 23.877527454392293 60.58437442363413 H 0.0 **** 0.06
18633 H 57.558290444551005 25.021093492518617 59.220660052953804 H 0.0 **** 0.06
18634 H 57.24205199849368 23.290880113873186 58.943891239298125 H 0.0 **** 0.06
18635 H 58.885179446030925 23.840882224859797 59.34832754118537 H 0.0 **** 0.06
18636 C 6.364779772352108 4.194317662820579 68.3400188221074 C 0.0 **** -0.24
18637 H 7.123947806315186 3.477303968295095 68.02794333734252 H 0.0 **** 0.06
18638 H 6.809719771921152 5.187028005965191 68.41083162062503 H 0.0 **** 0.06
18639 H 5.968460088315226 3.9023350672249624 69.31309065358687 H 0.0 **** 0.06
18640 H 5.556293604745122 4.208595287786359 67.60890245412335 H 0.0 **** 0.06
18641 C 56.668818468760385 26.38938998014862 12.669328620519714 C 0.0 **** -0.24
18642 H 57.33647476714459 25.556047318476118 12.451742057616734 H 0.0 **** 0.06
18643 H 57.24043489678602 27.318181675944004 12.682914707536142 H 0.0 **** 0.06
18644 H 56.20071234470862 26.236736927926046 13.641677094560354 H 0.0 **** 0.06
18645 H 55.898960304171766 26.448382741497085 11.899937221449047 H 0.0 **** 0.06
18646 C 40.118060734984425 12.744336418557094 58.36074568263183 C 0.0 **** -0.24
18647 H 40.640568749288676 13.59848208692799 58.792600361717746 H 0.0 **** 0.06
18648 H 40.207425144098494 12.775975370866583 57.27463847436573 H 0.0 **** 0.06
18649 H 39.06536226740053 12.783295768652462 58.64039717740701 H 0.0 **** 0.06
18650 H 40.55968800968597 11.821679983045293 58.73536848585812 H 0.0 **** 0.06
18651 C 60.372368232847904 58.43416271777909 103.1682495615355 C 0.0 **** -0.24
18652 H 60.83389097274559 58.856952063458834 102.27593303297652 H 0.0 **** 0.06
18653 H 59.870501935654715 57.50096380183331 102.91030785515483 H 0.0 **** 0.06
18654 H 59.64547095163381 59.1392478130997 103.57031817350986 H 0.0 **** 0.06
18655 H 61.14083532016541 58.23880134880477 103.91660052597854 H 0.0 **** 0.06
18656 C 90.48256685237546 96.17129410968067 89.69302459102062 C 0.0 **** -0.24
18657 H 89.44724379300668 95.90938951402478 89.47584727494598 H 0.0 **** 0.06
18658 H 91.12253714211849 95.30889716834258 89.50649200331895 H 0.0 **** 0.06
18659 H 90.57010866354648 96.47040224718606 90.73744194462023 H 0.0 **** 0.06
18660 H 90.78947040454702 96.99813426129202 89.05110674084284 H 0.0 **** 0.06
18661 C 32.3942396906906 104.3595607004596 23.620936092402843 C 0.0 **** -0.24
18662 H 31.842859096078712 104.3941469294004 24.561221239544324 H 0.0 **** 0.06
18663 H 32.44621104866215 103.32831726181865 23.268811237730873 H 0.0 **** 0.06
18664 H 33.402134313918 104.74206802989575 23.776548911050128 H 0.0 **** 0.06
18665 H 31.88313075067748 104.97258300507892 22.878521670379158 H 0.0 **** 0.06
18666 C 2.1680664342312923 70.3282017079063 37.52406930652381 C 0.0 **** -0.24
18667 H 1.1274172060063279 70.3336622732105 37.198142498530814 H 0.0 **** 0.06
18668 H 2.6345751344551616 71.27854338194793 37.26382092773932 H 0.0 **** 0.06
18669 H 2.6981946801754475 69.51497956882977 37.02815533381397 H 0.0 **** 0.06
18670 H 2.2093576370624817 70.18510954249591 38.60364168020614 H 0.0 **** 0.06
18671 C 42.049352271956025 19.52152387902862 2.582645380803342 C 0.0 **** -0.24
18672 H 42.368732731277106 18.494104962623396 2.4070880648772714 H 0.0 **** 0.06
18673 H 41.70251463016754 19.622496523173197 3.6113931992459243 H 0.0 **** 0.06
18674 H 41.237790369791014 19.77058651595911 1.898583270969013 H 0.0 **** 0.06
18675 H 42.887511847409286 20.196652186382607 2.4130986139225854 H 0.0 **** 0.06
18676 C 60.23040948413387 61.67077951722388 91.78775741377356 C 0.0 **** -0.24
18677 H 59.568500819481045 60.99088889235912 92.32415793677767 H 0.0 **** 0.06
18678 H 61.26424219260957 61.46618037272293 92.06534877841715 H 0.0 **** 0.06
18679 H 59.98059362391149 62.69968934448764 92.04779874803947 H 0.0 **** 0.06
18680 H 60.1054297619967 61.52684009266193 90.71444786578336 H 0.0 **** 0.06
18681 C 83.87895996488345 26.797581850870614 88.15011258035939 C 0.0 **** -0.24
18682 H 83.81453245846362 27.585340713471624 88.9012117561766 H 0.0 **** 0.06
18683 H 83.18173158947667 27.010585089338946 87.33971694672294 H 0.0 **** 0.06
18684 H 83.62637682773874 25.84074517630438 88.60624103261678 H 0.0 **** 0.06
18685 H 84.89414815847888 26.755539748795883 87.75516540766336 H 0.0 **** 0.06
18686 C 74.47984343485268 2.5992780866083365 13.524133297140722 C 0.0 **** -0.24
18687 H 74.67467592485337 3.456656889270832 14.168129211239645 H 0.0 **** 0.06
18688 H 73.80269281068303 2.894935083123883 12.721877160869155 H 0.0 **** 0.06
18689 H 74.02338943088873 1.8010819430780316 14.109116630887968 H 0.0 **** 0.06
18690 H 75.4179985004514 2.2460362659040527 13.095659059568248 H 0.0 **** 0.06
18691 C 91.52062600632388 0.328555302265479 105.32207530641996 C 0.0 **** -0.24
18692 H 92.42396643202852 0.4805280375262111 105.91265909959588 H 0.0 **** 0.06
18693 H 90.6972743371436 0.05519268486854312 105.98217286326187 H 0.0 **** 0.06
18694 H 91.68896557837388 -0.4708453426721855 104.6008255335667 H 0.0 **** 0.06
18695 H 91.27366441708739 1.2492630214142677 104.7929976579527 H 0.0 **** 0.06
18696 C 18.311130723316666 52.25314739770323 34.9901428794814 C 0.0 **** -0.24
18697 H 18.32587609409967 51.35091598543559 35.60160990025588 H 0.0 **** 0.06
18698 H 17.29073510920398 52.44986927728684 34.65928155019827 H 0.0 **** 0.06
18699 H 18.954488171144675 52.114577014655026 34.121705624101 H 0.0 **** 0.06
18700 H 18.671824900177285 53.09655842432204 35.579387685574204 H 0.0 **** 0.06
18701 C 85.094540111139 54.819782974438944 61.47492711164702 C 0.0 **** -0.24
18702 H 84.88616843050363 55.52537687145944 60.67068438845817 H 0.0 **** 0.06
18703 H 85.56731552343462 55.3456966650236 62.30525363436561 H 0.0 **** 0.06
18704 H 85.76338094582002 54.04052179263871 61.11036328729881 H 0.0 **** 0.06
18705 H 84.16166907811726 54.36977986706181 61.814317291564066 H 0.0 **** 0.06
18706 C 55.607094239953824 12.396392560915686 101.14592448263829 C 0.0 **** -0.24
18707 H 56.01477558624953 13.40161382755906 101.0405633319715 H 0.0 **** 0.06
18708 H 56.156214968212396 11.711986614220777 100.49931502817572 H 0.0 **** 0.06
18709 H 54.55482272427548 12.400710023610287 100.86170295139817 H 0.0 **** 0.06
18710 H 55.70277515088986 12.073143156502937 102.18275565355043 H 0.0 **** 0.06
18711 C 55.706858615011015 48.237750459427275 46.48627144726652 C 0.0 **** -0.24
18712 H 54.880942155084085 47.55306627227844 46.683708824855955 H 0.0 **** 0.06
18713 H 55.31629641401099 49.166831567589924 46.06961165073483 H 0.0 **** 0.06
18714 H 56.39502976312349 47.78091314289486 45.7760208346312 H 0.0 **** 0.06
18715 H 56.2322324980741 48.44949173450868 47.417449073121986 H 0.0 **** 0.06
18716 C 73.33721022706663 51.98972183582708 53.30230791377268 C 0.0 **** -0.24
18717 H 72.49061700850888 52.60604091131805 52.997251101957126 H 0.0 **** 0.06
18718 H 73.26589996067719 51.77811903453022 54.370005928101804 H 0.0 **** 0.06
18719 H 74.26595588571365 52.52142646216217 53.097177422948924 H 0.0 **** 0.06
18720 H 73.32277335617408 51.05333375026183 52.743759045580354 H 0.0 **** 0.06
18721 C 82.13054007230829 32.520286566112034 45.06212957520785 C 0.0 **** -0.24
18722 H 82.30614120257093 33.0198710335446 46.01446955130962 H 0.0 **** 0.06
18723 H 81.09531417435386 32.6761021423237 44.75617078216089 H 0.0 **** 0.06
18724 H 82.32064338182494 31.45274746904819 45.17181939621696 H 0.0 **** 0.06
18725 H 82.79841122052039 32.933631916006554 44.3069649781001 H 0.0 **** 0.06
18726 C 44.81329817297261 63.77029665466564 104.00064889631122 C 0.0 **** -0.24
18727 H 44.55936372133325 64.47322583629587 104.79413281453797 H 0.0 **** 0.06
18728 H 44.276113187608324 62.83474750685892 104.15864883500717 H 0.0 **** 0.06
18729 H 45.88574614308359 63.579856058843646 104.01331848237099 H 0.0 **** 0.06
18730 H 44.529739443664795 64.19319899062101 103.0364575434372 H 0.0 **** 0.06
18731 C 7.127441363253732 64.65772101267297 52.51210897040816 C 0.0 **** -0.24
18732 H 6.08540049336607 64.34281566083018 52.452827191419644 H 0.0 **** 0.06
18733 H 7.250328423042564 65.60545930365942 51.988396511163046 H 0.0 **** 0.06
18734 H 7.76217448244306 63.90159457889912 52.05006184423782 H 0.0 **** 0.06
18735 H 7.410979623243435 64.78075481762359 53.55754266947601 H 0.0 **** 0.06
18736 C 27.34451752244474 51.30167653232961 34.29469940914069 C 0.0 **** -0.24
18737 H 28.068831562550407 50.81950859051666 33.63845929001906 H 0.0 **** 0.06
18738 H 26.46809301740573 51.59286483498123 33.71659451051694 H 0.0 **** 0.06
18739 H 27.794055188977715 52.1862607857438 34.7446565131109 H 0.0 **** 0.06
18740 H 27.047853745978408 50.60581392966366 35.07965209514455 H 0.0 **** 0.06
18741 C 89.30635042636015 25.382379247298957 94.91120623079009 C 0.0 **** -0.24
18742 H 89.89729888633428 25.978871532147394 94.21584894347755 H 0.0 **** 0.06
18743 H 89.80842709809122 25.34847814355608 95.87830375135518 H 0.0 **** 0.06
18744 H 89.19911778782233 24.37061330116549 94.52079405185954 H 0.0 **** 0.06
18745 H 88.32078913918696 25.83274378336361 95.0291494187841 H 0.0 **** 0.06
18746 C 46.85952199607527 73.77740226809485 65.77777921779251 C 0.0 **** -0.24
18747 H 46.22629438628434 74.10926982151796 66.60025752073909 H 0.0 **** 0.06
18748 H 46.23621248840982 73.51165399975497 64.92415285655002 H 0.0 **** 0.06
18749 H 47.43678341165693 72.90740615646183 66.0924170057514 H 0.0 **** 0.06
18750 H 47.53974412260723 74.58112881217616 65.49457539911991 H 0.0 **** 0.06
18751 C 100.58994793354128 49.93111868291529 17.27546509483745 C 0.0 **** -0.24
18752 H 100.10792312642722 49.63169195092871 16.345434705943852 H 0.0 **** 0.06
18753 H 101.23447705852391 50.79042417480349 17.09010828791165 H 0.0 **** 0.06
18754 H 101.18691565067847 49.10346389691685 17.65743357865673 H 0.0 **** 0.06
18755 H 99.82896827277288 50.199688053687865 18.008571049065356 H 0.0 **** 0.06
18756 C 52.529926238140625 41.81507570624143 91.34231200946827 C 0.0 **** -0.24
18757 H 53.09642749405915 41.034706085147405 91.85117788730818 H 0.0 **** 0.06
18758 H 52.18382569600729 42.547295829761 92.0727817479972 H 0.0 **** 0.06
18759 H 51.67092272561066 41.369748602101765 90.83898143164093 H 0.0 **** 0.06
18760 H 53.16704028065416 42.30724106995547 90.60855746103073 H 0.0 **** 0.06
18761 C 41.773640776625484 3.191848510926974 72.52979978339908 C 0.0 **** -0.24
18762 H 40.73593408148376 3.2797387204069537 72.84965901524106 H 0.0 **** 0.06
18763 H 42.2184031783754 2.303379974727193 72.97956638703698 H 0.0 **** 0.06
18764 H 42.328102004912964 4.075644424851134 72.84586529545805 H 0.0 **** 0.06
18765 H 41.81291346469665 3.107651362267461 71.4434626386641 H 0.0 **** 0.06
18766 C 22.213536412855586 93.23951984933335 75.2631472085431 C 0.0 **** -0.24
18767 H 22.888206022440148 94.08881034992228 75.14992404032478 H 0.0 **** 0.06
18768 H 22.47060179689862 92.69084693653893 76.16993238150863 H 0.0 **** 0.06
18769 H 22.309537641938796 92.58201134516962 74.39961368240506 H 0.0 **** 0.06
18770 H 21.187002369847075 93.59950367815772 75.33452915561841 H 0.0 **** 0.06
18771 C 52.62931720099243 3.123647987655384 47.23104238443804 C 0.0 **** -0.24
18772 H 51.576513472427905 3.35975890533855 47.38115479703594 H 0.0 **** 0.06
18773 H 53.11371557402123 3.9448437997109433 46.70080317461353 H 0.0 **** 0.06
18774 H 52.716504967374476 2.209811084422003 46.643042139603125 H 0.0 **** 0.06
18775 H 53.111164081900654 2.981005888239083 48.19778414371509 H 0.0 **** 0.06
18776 C 56.91300385705904 48.82825892564409 56.71487995738261 C 0.0 **** -0.24
18777 H 57.264389271157995 49.52372533371181 57.476095797102914 H 0.0 **** 0.06
18778 H 57.743377013998014 48.20498772268519 56.381360322894146 H 0.0 **** 0.06
18779 H 56.51522093988831 49.38702669470834 55.86794183846951 H 0.0 **** 0.06
18780 H 56.12962120812472 48.196054726508464 57.13306932444634 H 0.0 **** 0.06
18781 C 24.077836996147436 26.838646275868882 77.03427731151402 C 0.0 **** -0.24
18782 H 23.226331143691098 27.235107698700517 77.5868431089792 H 0.0 **** 0.06
18783 H 24.04567260727602 27.204519754741227 76.00719698525931 H 0.0 **** 0.06
18784 H 24.03422600347297 25.749058625121762 77.03341382885293 H 0.0 **** 0.06
18785 H 25.003465313965897 27.164854400399463 77.50761154604736 H 0.0 **** 0.06
18786 C 9.362944154491174 21.787946812365675 29.0819787556664 C 0.0 **** -0.24
18787 H 9.20792557038601 21.123831482643766 29.93314149148688 H 0.0 **** 0.06
18788 H 10.029301921858973 22.60058947190697 29.372042748010585 H 0.0 **** 0.06
18789 H 8.40483276799415 22.199015218135344 28.763026989677144 H 0.0 **** 0.06
18790 H 9.80820042707586 21.22662793378541 28.26055996507222 H 0.0 **** 0.06
18791 C 33.825109031640324 62.040183727230726 7.068208442894743 C 0.0 **** -0.24
18792 H 33.363375156991665 62.44212383382438 7.970187297311412 H 0.0 **** 0.06
18793 H 33.92182399938408 60.95860728074308 7.161221637652261 H 0.0 **** 0.06
18794 H 34.811995590767886 62.48412292497076 6.936171367758092 H 0.0 **** 0.06
18795 H 33.20126872324697 62.27663837347447 6.20598494880781 H 0.0 **** 0.06
18796 C 92.01707960325352 33.194829333526 99.2407503073037 C 0.0 **** -0.24
18797 H 91.0060827159753 33.601190509251836 99.22223743179202 H 0.0 **** 0.06
18798 H 91.96977329998583 32.106221065926974 99.28288182984573 H 0.0 **** 0.06
18799 H 92.54418432649881 33.57079114284994 100.11769055461951 H 0.0 **** 0.06
18800 H 92.54763643618216 33.50115897602058 98.33893187470045 H 0.0 **** 0.06
18801 C 60.58551427851887 69.3402124904834 106.02021340132264 C 0.0 **** -0.24
18802 H 59.53205966632294 69.4975025654619 105.7897637289918 H 0.0 **** 0.06
18803 H 61.16097774553373 70.2117336914315 105.70623009485719 H 0.0 **** 0.06
18804 H 60.9450427921804 68.45719592595185 105.49155956811295 H 0.0 **** 0.06
18805 H 60.704376856311 69.19391143280711 107.09406421985256 H 0.0 **** 0.06
18806 C 31.818187397515032 61.57849582131928 24.19564240779971 C 0.0 **** -0.24
18807 H 31.93013642807179 60.515387342193634 24.410064117387975 H 0.0 **** 0.06
18808 H 30.76195227196905 61.84734393601242 24.23774932552425 H 0.0 **** 0.06
18809 H 32.20798448228578 61.79145456435718 23.199871999057308 H 0.0 **** 0.06
18810 H 32.37075545300155 62.15897516816375 24.93360587206979 H 0.0 **** 0.06
18811 C 74.13325905739049 87.54483834531038 42.46923181400618 C 0.0 **** -0.24
18812 H 73.98913423923452 87.36044360355618 41.40522738793051 H 0.0 **** 0.06
18813 H 74.26033723238385 88.6143996306543 42.63921329041915 H 0.0 **** 0.06
18814 H 75.0204531420602 87.0129272382078 42.81327412060246 H 0.0 **** 0.06
18815 H 73.26135062420312 87.18959528546554 43.02018644786378 H 0.0 **** 0.06
18816 C 44.30305524172712 88.5256460201502 42.247107597686366 C 0.0 **** -0.24
18817 H 44.13712774704953 88.32273223791069 43.304571955981885 H 0.0 **** 0.06
18818 H 44.72982563627892 89.52231014652546 42.130915704743686 H 0.0 **** 0.06
18819 H 43.35436123235803 88.47231380800153 41.71401364432573 H 0.0 **** 0.06
18820 H 44.99090635122201 87.78522788816328 41.83892908569402 H 0.0 **** 0.06
18821 C 57.02445315483231 96.3639164772668 90.05524055013456 C 0.0 **** -0.24
18822 H 56.92402359971969 95.41340452287955 89.52934902865752 H 0.0 **** 0.06
18823 H 57.255004399207564 97.15194714311099 89.33789078316715 H 0.0 **** 0.06
18824 H 57.82875898799697 96.29018432155874 90.78710976868325 H 0.0 **** 0.06
18825 H 56.0886672783157 96.59709897176754 90.56416945403748 H 0.0 **** 0.06
18826 C 18.687021640273827 29.074951107705715 71.2884518921006 C 0.0 **** -0.24
18827 H 19.520231678640243 29.60148649744599 71.75332322155714 H 0.0 **** 0.06
18828 H 17.747234285172055 29.460720385247498 71.68473676748744 H 0.0 **** 0.06
18829 H 18.76355092852583 28.009340633882232 71.50668226179317 H 0.0 **** 0.06
18830 H 18.716733156451994 29.227997715969934 70.20997064914351 H 0.0 **** 0.06
18831 C 31.531027148394628 81.19147663770202 3.53559474645796 C 0.0 **** -0.24
18832 H 31.592320416871587 81.07346122559773 4.617707212098935 H 0.0 **** 0.06
18833 H 30.4848497633825 81.2520133402285 3.23528147364415 H 0.0 **** 0.06
18834 H 32.00057488420572 80.33667392351721 3.0492676077342935 H 0.0 **** 0.06
18835 H 32.04732204128936 82.1063198203947 3.240843138032645 H 0.0 **** 0.06
18836 C 75.31587150911048 65.79467385716728 19.566195666272876 C 0.0 **** -0.24
18837 H 74.56088426767332 66.33141479759672 20.1404571747222 H 0.0 **** 0.06
18838 H 75.03629706454797 65.7941078737453 18.512479057460524 H 0.0 **** 0.06
18839 H 75.38213045080721 64.76708463797692 19.925692655387707 H 0.0 **** 0.06
18840 H 76.28129686332181 66.28527084161297 19.686384275413275 H 0.0 **** 0.06
18841 C 53.641314994827546 3.43646328789373 30.45589423615894 C 0.0 **** -0.24
18842 H 54.254652516827534 2.7764060478945565 31.07027152055376 H 0.0 **** 0.06
18843 H 54.2816543376673 4.155710340787223 29.94481000747558 H 0.0 **** 0.06
18844 H 52.932337164993896 3.96720383471388 31.091710873752433 H 0.0 **** 0.06
18845 H 53.09715599770333 2.8449776171907137 29.720144611375204 H 0.0 **** 0.06
18846 C 98.6360059388915 17.26435051373886 34.14852079345354 C 0.0 **** -0.24
18847 H 99.07731122382017 16.442130187946958 33.58559342341471 H 0.0 **** 0.06
18848 H 99.25142347900776 18.156713344090633 34.03059396874173 H 0.0 **** 0.06
18849 H 98.58551621821601 16.99481730866819 35.203530513672774 H 0.0 **** 0.06
18850 H 97.6321858067915 17.462448963491568 33.77559331469598 H 0.0 **** 0.06
18851 C 46.52086764045646 79.23795423883644 71.26514136641627 C 0.0 **** -0.24
18852 H 45.92341946037402 78.81216876461127 70.45980218241344 H 0.0 **** 0.06
18853 H 46.086153077354254 78.9605634720586 72.22594026407863 H 0.0 **** 0.06
18854 H 46.53380508771659 80.32367781580757 71.17191702426382 H 0.0 **** 0.06
18855 H 47.53985204775802 78.85613481183975 71.20226398965477 H 0.0 **** 0.06
18856 C 65.03090853363625 67.35081187499884 87.23298543709166 C 0.0 **** -0.24
18857 H 64.58329533431811 67.47286407888095 88.22023901996505 H 0.0 **** 0.06
18858 H 64.24213016994389 67.30161145081564 86.48099609372753 H 0.0 **** 0.06
18859 H 65.61410713558158 66.43032479250633 87.20990346530323 H 0.0 **** 0.06
18860 H 65.68162735067006 68.19916169903752 87.02312020740624 H 0.0 **** 0.06
18861 C 22.830676753497812 16.170957738756584 56.29313997377642 C 0.0 **** -0.24
18862 H 23.793391978658377 16.141755537454173 55.78085334548921 H 0.0 **** 0.06
18863 H 22.165017630208126 15.427526936468567 55.85472757444432 H 0.0 **** 0.06
18864 H 22.39160466568967 17.16295272689591 56.183255722419275 H 0.0 **** 0.06
18865 H 22.975484571056512 15.952910633008884 57.35098873044993 H 0.0 **** 0.06
18866 C 87.4007346265929 82.5112981138819 43.32139765174253 C 0.0 **** -0.24
18867 H 87.44444780760698 82.94079344431968 44.32194687652907 H 0.0 **** 0.06
18868 H 87.40785214379964 83.31206713064897 42.58102595324857 H 0.0 **** 0.06
18869 H 86.48667962395558 81.92698678238692 43.21602412908783 H 0.0 **** 0.06
18870 H 88.2651535147915 81.86498822313605 43.165926033778305 H 0.0 **** 0.06
18871 C 44.93327685910138 81.6489065148142 35.921050631778655 C 0.0 **** -0.24
18872 H 44.77813420634102 81.90352315709288 36.96957149262579 H 0.0 **** 0.06
18873 H 44.20042018149576 80.90070893615416 35.61704011208832 H 0.0 **** 0.06
18874 H 45.93833381410696 81.24792187004203 35.79002126520726 H 0.0 **** 0.06
18875 H 44.81583534772984 82.54301141196959 35.30919463407602 H 0.0 **** 0.06
18876 C 26.293721692228985 77.88616441024536 99.71440776427592 C 0.0 **** -0.24
18877 H 26.328762271291282 77.78860176438297 98.6288864144873 H 0.0 **** 0.06
18878 H 26.852857761095038 78.77174024912912 100.01630037625365 H 0.0 **** 0.06
18879 H 26.737130002753815 77.00176865270686 100.17266763656718 H 0.0 **** 0.06
18880 H 25.257140342298953 77.98165241925858 100.03643100810665 H 0.0 **** 0.06
18881 C 36.18622346052544 82.98893963973555 21.191547660784547 C 0.0 **** -0.24
18882 H 36.933357757335386 83.4709181797396 21.822548390733566 H 0.0 **** 0.06
18883 H 35.45077201058257 82.486018915422 21.819246441538056 H 0.0 **** 0.06
18884 H 36.672404579607644 82.25952939853245 20.54448318692674 H 0.0 **** 0.06
18885 H 35.688318313120476 83.74152562874544 20.580011345381386 H 0.0 **** 0.06
18886 C 72.96042623223641 107.9023931517641 17.547750121309058 C 0.0 **** -0.24
18887 H 72.50322613621157 108.21227679182925 16.60810547589003 H 0.0 **** 0.06
18888 H 72.17908607891499 107.63216959992565 18.259136608084845 H 0.0 **** 0.06
18889 H 73.55126762739626 108.72416881962147 17.952546451650054 H 0.0 **** 0.06
18890 H 73.6055881091055 107.04225418768453 17.372151376300256 H 0.0 **** 0.06
18891 C 42.964779992417306 29.75919677363565 12.64124186488965 C 0.0 **** -0.24
18892 H 43.397543357489326 29.18483639305248 11.822155858979158 H 0.0 **** 0.06
18893 H 42.29120216186675 29.1213158721866 13.214232061521727 H 0.0 **** 0.06
18894 H 42.4091579947486 30.605013368141613 12.238021976496213 H 0.0 **** 0.06
18895 H 43.76076411405768 30.122498196221187 13.290760290792178 H 0.0 **** 0.06
18896 C 70.4320745413579 20.305859439469685 105.49569247438569 C 0.0 **** -0.24
18897 H 70.15673314661984 20.05594988113313 106.52078575840926 H 0.0 **** 0.06
18898 H 71.49703832639136 20.12300065690357 105.35145766677863 H 0.0 **** 0.06
18899 H 70.21526786019007 21.356757876971443 105.30738384878987 H 0.0 **** 0.06
18900 H 69.86026819420147 19.68681407414809 104.80421202536752 H 0.0 **** 0.06
18901 C 102.5467210340039 24.53509780734484 102.048003722153 C 0.0 **** -0.24
18902 H 102.69083010771658 25.114159608804812 101.13588099708394 H 0.0 **** 0.06
18903 H 103.50755374714711 24.392954978169627 102.54298735034291 H 0.0 **** 0.06
18904 H 102.11779585890281 23.56448497692891 101.79768628016546 H 0.0 **** 0.06
18905 H 101.86991392258085 25.07029057323527 102.71510174401502 H 0.0 **** 0.06
18906 C 63.554100661517396 75.7334028877986 91.12475163250825 C 0.0 **** -0.24
18907 H 64.3234648880059 74.96437422588048 91.04508642501538 H 0.0 **** 0.06
18908 H 62.85037337852515 75.46211562191374 91.91181643520903 H 0.0 **** 0.06
18909 H 63.0245794615592 75.81699982949564 90.17615073119056 H 0.0 **** 0.06
18910 H 64.02073822619366 76.6884157512336 91.36753694727064 H 0.0 **** 0.06
18911 C 48.80507322361728 58.89944193385446 96.31920731225819 C 0.0 **** -0.24
18912 H 49.894292226306845 58.83705113105423 96.32433809686972 H 0.0 **** 0.06
18913 H 48.38377525825019 57.90730921974275 96.48100830163416 H 0.0 **** 0.06
18914 H 48.46843870054167 59.285501623388 95.35730557434044 H 0.0 **** 0.06
18915 H 48.47649477182018 59.567965152853645 97.11499168810799 H 0.0 **** 0.06
18916 C 76.81294135723891 59.44836265397454 62.57596798306584 C 0.0 **** -0.24
18917 H 76.67893393416952 59.67803914274582 63.63344121054227 H 0.0 **** 0.06
18918 H 77.30405061065692 58.480519972957566 62.47428161946242 H 0.0 **** 0.06
18919 H 77.42850248111709 60.21890963619792 62.111796985693346 H 0.0 **** 0.06
18920 H 75.83995696695041 59.416002658092765 62.08572919519642 H 0.0 **** 0.06
18921 C 16.984187028070608 89.94477757320935 75.761881874967 C 0.0 **** -0.24
18922 H 16.252133231420828 90.73698150878886 75.60436985519524 H 0.0 **** 0.06
18923 H 16.91206213107 89.21835823820992 74.95273492434794 H 0.0 **** 0.06
18924 H 16.7853355929455 89.45218358034725 76.71314003012606 H 0.0 **** 0.06
18925 H 17.986007372512518 90.37433224756643 75.77726554051097 H 0.0 **** 0.06
18926 C 31.540305287964884 7.845604275388098 13.164535303160818 C 0.0 **** -0.24
18927 H 31.592286689688763 8.706418368916161 13.83083994212538 H 0.0 **** 0.06
18928 H 30.731249778517594 7.188282707194958 13.482924055412354 H 0.0 **** 0.06
18929 H 32.48488710432977 7.302535773459397 13.197861958846488 H 0.0 **** 0.06
18930 H 31.35259661187422 8.185694758363468 12.145681622757877 H 0.0 **** 0.06
18931 C 5.810916203924284 39.67594405733206 17.82438702313175 C 0.0 **** -0.24
18932 H 6.1373230487438395 40.52217006971998 18.42989179526836 H 0.0 **** 0.06
18933 H 5.532957786022223 38.84876224052246 18.47738718633883 H 0.0 **** 0.06
18934 H 6.624050422069454 39.364517032577794 17.16852512754619 H 0.0 **** 0.06
18935 H 4.95128730559246 39.969447423539265 17.222707086561684 H 0.0 **** 0.06
18936 C 8.237757625604218 92.49372741132812 16.32784749352095 C 0.0 **** -0.24
18937 H 7.277433698173581 91.99866794651544 16.17983060547149 H 0.0 **** 0.06
18938 H 8.142910898243088 93.23844974853425 17.118495729646302 H 0.0 **** 0.06
18939 H 8.539830031221868 92.9822869497748 15.401251722395585 H 0.0 **** 0.06
18940 H 8.987440333164443 91.75579841918986 16.610694497646314 H 0.0 **** 0.06
18941 C 15.88727397698112 29.16948586686007 52.357033126375086 C 0.0 **** -0.24
18942 H 16.058347085593468 29.758211782243222 51.45542418447343 H 0.0 **** 0.06
18943 H 16.70436393350262 28.459912268506116 52.48752135399002 H 0.0 **** 0.06
18944 H 14.946807570200292 28.626628599151076 52.262540863126105 H 0.0 **** 0.06
18945 H 15.839407559867468 29.83297520244787 53.219340769267205 H 0.0 **** 0.06
18946 C 60.044441027616756 33.7190675939886 46.20114992293232 C 0.0 **** -0.24
18947 H 59.777188335380686 34.11249348595197 45.22075923894185 H 0.0 **** 0.06
18948 H 61.083750633867794 33.38887889105473 46.18932254357559 H 0.0 **** 0.06
18949 H 59.397498033996584 32.875954594145355 46.443044704186384 H 0.0 **** 0.06
18950 H 59.91880633875343 34.49955440470683 46.952069467438584 H 0.0 **** 0.06
18951 C 2.7618968770345873 45.771046495654616 39.840370133751236 C 0.0 **** -0.24
18952 H 2.4600709812541766 46.79725960993596 40.04786614489919 H 0.0 **** 0.06
18953 H 3.5088041873113838 45.45772894121262 40.569169418807945 H 0.0 **** 0.06
18954 H 3.1858779190624062 45.71370616194065 38.83775952436574 H 0.0 **** 0.06
18955 H 1.892292467749428 45.116320773388736 39.90526475724336 H 0.0 **** 0.06
18956 C 70.7425827694687 88.57619038808345 36.93646843581115 C 0.0 **** -0.24
18957 H 70.36296243427006 89.44893752399413 37.468566868517286 H 0.0 **** 0.06
18958 H 71.09880064934435 87.8389471111237 37.65619411403034 H 0.0 **** 0.06
18959 H 71.56440079512561 88.87669081676113 36.2871099437516 H 0.0 **** 0.06
18960 H 69.94441624167291 88.14225033053182 36.33529789581614 H 0.0 **** 0.06
18961 C 65.04838724977881 36.259816875914076 103.94469670556308 C 0.0 **** -0.24
18962 H 65.067144288837 35.29965392079904 103.4276665228 H 0.0 **** 0.06
18963 H 65.74469304170249 36.23397000564292 104.78362346427551 H 0.0 **** 0.06
18964 H 64.04135519541012 36.45438506760348 104.31172456976665 H 0.0 **** 0.06
18965 H 65.34234126446722 37.05000251741174 103.25285957237179 H 0.0 **** 0.06
18966 C 72.82618686563342 101.13230907847512 57.412561731308244 C 0.0 **** -0.24
18967 H 72.55405095122623 100.64447833428252 58.34823691203175 H 0.0 **** 0.06
18968 H 72.34539459569905 102.10995411657099 57.36041852804428 H 0.0 **** 0.06
18969 H 72.49643230252452 100.51964139993581 56.573729156150314 H 0.0 **** 0.06
18970 H 73.90874013645092 101.25708354136125 57.36899940503369 H 0.0 **** 0.06
18971 C 19.701435351903687 81.35446938820557 10.731541220795151 C 0.0 **** -0.24
18972 H 19.11571029581875 81.74601175736514 11.563888893728176 H 0.0 **** 0.06
18973 H 19.06661473462746 81.27123572827276 9.848689666473604 H 0.0 **** 0.06
18974 H 20.092536254308996 80.3717565434591 10.993043345024859 H 0.0 **** 0.06
18975 H 20.528688075633582 82.03161521104815 10.521366824836292 H 0.0 **** 0.06
18976 C 49.1784145118352 39.73342943988689 63.72198937958122 C 0.0 **** -0.24
18977 H 49.51208581737177 38.81648051717531 63.23741540285123 H 0.0 **** 0.06
18978 H 49.66560885065098 39.82820988643226 64.6933715375401 H 0.0 **** 0.06
18979 H 48.09692275608458 39.70005496925802 63.85899543771218 H 0.0 **** 0.06
18980 H 49.439530765273446 40.58901943640433 63.099500902718134 H 0.0 **** 0.06
18981 C 33.040662552322644 77.97590666325596 101.86977201429171 C 0.0 **** -0.24
18982 H 34.00486209130159 78.14091212743142 102.3511215069127 H 0.0 **** 0.06
18983 H 32.66599922198112 76.98795355017 102.13613616816974 H 0.0 **** 0.06
18984 H 33.15849946287293 78.04127931175793 100.7887430242605 H 0.0 **** 0.06
18985 H 32.333228245939765 78.7356920409328 102.20414129602725 H 0.0 **** 0.06
18986 C 26.459642423604308 76.99909938004323 35.16452264675374 C 0.0 **** -0.24
18987 H 26.888077994923762 77.9878445482435 35.324331119830276 H 0.0 **** 0.06
18988 H 26.024240583644385 76.94917116029046 34.16684923318631 H 0.0 **** 0.06
18989 H 25.684978614518755 76.81463252348762 35.90893035332002 H 0.0 **** 0.06
18990 H 27.24085681791837 76.2452547406181 35.259233604809936 H 0.0 **** 0.06
18991 C 53.01485064927641 21.821640475551504 107.33486102104347 C 0.0 **** -0.24
18992 H 52.38260762346988 20.946778961704183 107.48431977456191 H 0.0 **** 0.06
18993 H 54.03354298417116 21.591237527101185 107.64600929475789 H 0.0 **** 0.06
18994 H 52.632534307573394 22.652772254188335 107.92868179989182 H 0.0 **** 0.06
18995 H 53.00976354830692 22.096409311978988 106.27960554482675 H 0.0 **** 0.06
18996 C 25.397935569992725 17.539986788902453 82.20624985171132 C 0.0 **** -0.24
18997 H 25.39763645170021 18.629402996249155 82.24215391472534 H 0.0 **** 0.06
18998 H 24.374327254289796 17.17296176176049 82.28964394544235 H 0.0 **** 0.06
18999 H 25.99267539708734 17.14911801496264 83.03175636025145 H 0.0 **** 0.06
19000 H 25.82731446699765 17.207566189595383 81.26037340993648 H 0.0 **** 0.06
19001 C 62.81481291864003 96.33980252083992 91.16343896428725 C 0.0 **** -0.24
19002 H 62.7771717619364 97.3442091525757 91.58657296635698 H 0.0 **** 0.06
19003 H 61.80704110203871 96.01873171766866 90.89982111127341 H 0.0 **** 0.06
19004 H 63.235503861130084 95.65238328972356 91.89750695076503 H 0.0 **** 0.06
19005 H 63.44044350496152 96.34598372800491 90.2707346241699 H 0.0 **** 0.06
19006 C 51.519760778631166 69.46117266658885 35.96316160837935 C 0.0 **** -0.24
19007 H 51.580905445849 69.65891509869823 34.89330737056491 H 0.0 **** 0.06
19008 H 50.59965135128925 68.91720647653631 36.179966494416675 H 0.0 **** 0.06
19009 H 51.52137243295209 70.40527533325411 36.507790301420215 H 0.0 **** 0.06
19010 H 52.377165744963236 68.86234730472489 36.27126354077129 H 0.0 **** 0.06
19011 C 31.74730146334585 53.07573361653385 96.93239183552716 C 0.0 **** -0.24
19012 H 32.042136965430444 52.49770823647157 97.80831509642455 H 0.0 **** 0.06
19013 H 31.97926735933791 54.12844482608418 97.09715787557812 H 0.0 **** 0.06
19014 H 30.67522752843638 52.96150656836326 96.76573762760722 H 0.0 **** 0.06
19015 H 32.29080854311238 52.7158437803958 96.05995666749955 H 0.0 **** 0.06
19016 C 12.715643301015774 50.080194557615236 13.57365882911617 C 0.0 **** -0.24
19017 H 12.395793652913568 50.749472892624155 12.775000218851375 H 0.0 **** 0.06
19018 H 13.651016978980095 49.597232844797404 13.289727562681207 H 0.0 **** 0.06
19019 H 11.95014440812676 49.322468203811525 13.741262788880704 H 0.0 **** 0.06
19020 H 12.865215580525387 50.65337230309508 14.489488696087534 H 0.0 **** 0.06
19021 C 66.24531321412944 0.9591381778654977 63.99901430078276 C 0.0 **** -0.24
19022 H 65.30452939068967 1.461512948425991 63.77320405355604 H 0.0 **** 0.06
19023 H 66.51396249533086 0.3029800458263594 63.171241430999444 H 0.0 **** 0.06
19024 H 66.13247631918803 0.3699775949153832 64.90861116846249 H 0.0 **** 0.06
19025 H 67.02864791053634 1.7032181517592448 64.14282529349299 H 0.0 **** 0.06
19026 C 98.89500328929407 70.58800927627345 57.78711190864203 C 0.0 **** -0.24
19027 H 98.24302208314565 71.0709817740975 58.51535154287305 H 0.0 **** 0.06
19028 H 99.81705315824718 71.16061738903142 57.69058825585145 H 0.0 **** 0.06
19029 H 98.39110523094372 70.54447593960674 56.82150356985176 H 0.0 **** 0.06
19030 H 99.126780533179 69.5769209703684 58.12193665603613 H 0.0 **** 0.06
19031 C 18.36547557766164 17.142930846598503 107.08575678438092 C 0.0 **** -0.24
19032 H 19.274263045534894 16.97142454492497 107.66172964667402 H 0.0 **** 0.06
19033 H 18.372660889726063 18.159927098572595 106.69177083259984 H 0.0 **** 0.06
19034 H 17.497023022081976 17.00891896677807 107.73056902886907 H 0.0 **** 0.06
19035 H 18.319198234892298 16.43291582505394 106.2601043555469 H 0.0 **** 0.06
19036 C 29.38875113010087 100.37645072041255 50.33029684690683 C 0.0 **** -0.24
19037 H 29.701041857585437 100.50661748877087 49.29444360175893 H 0.0 **** 0.06
19038 H 28.343367329661177 100.06653503002207 50.35866789046685 H 0.0 **** 0.06
19039 H 29.5034505208652 101.31926135850719 50.866090710571996 H 0.0 **** 0.06
19040 H 30.00682858580612 99.61282509905726 50.80324300465884 H 0.0 **** 0.06
19041 C 36.57873669703745 78.60371158999325 48.301865893399786 C 0.0 **** -0.24
19042 H 35.74293383634077 79.2371523107295 48.006948566579446 H 0.0 **** 0.06
19043 H 37.15296876161281 79.10177159000165 49.08348579278655 H 0.0 **** 0.06
19044 H 37.22020168940083 78.4239458989112 47.43868638638374 H 0.0 **** 0.06
19045 H 36.200134885565966 77.65376328123273 48.67797185917753 H 0.0 **** 0.06
19046 C 71.6203974559179 91.0217897311773 83.18488971117844 C 0.0 **** -0.24
19047 H 71.41980978964 90.03160458919413 82.7767331284818 H 0.0 **** 0.06
19048 H 72.62884251728298 91.33027281492635 82.91036907811426 H 0.0 **** 0.06
19049 H 71.53246014290886 90.9909297972468 84.2715946534797 H 0.0 **** 0.06
19050 H 70.89984273825979 91.73343223964454 82.78304191231769 H 0.0 **** 0.06
19051 C 99.54544007662702 19.7030006974735 39.64457308256155 C 0.0 **** -0.24
19052 H 99.04303249651008 19.078576716967575 38.90568595465791 H 0.0 **** 0.06
19053 H 100.5591341425079 19.91911314534292 39.306678673961045 H 0.0 **** 0.06
19054 H 99.58406012461319 19.177237672593208 40.598503156991754 H 0.0 **** 0.06
19055 H 98.99611642859219 20.636875669708502 39.765274973122246 H 0.0 **** 0.06
19056 C 10.226699798363256 82.80026537440624 22.999430939443926 C 0.0 **** -0.24
19057 H 10.203706261913737 83.74842620142194 23.53581994429956 H 0.0 **** 0.06
19058 H 10.720141483960958 82.04697581293152 23.61407069817311 H 0.0 **** 0.06
19059 H 10.7757316007079 82.924122630774 22.065198422377478 H 0.0 **** 0.06
19060 H 9.20686122134697 82.48188616424711 22.781312018313912 H 0.0 **** 0.06
19061 C 77.63592423834227 100.30914620373085 23.739632320471244 C 0.0 **** -0.24
19062 H 77.48162898463961 99.62079755331935 24.570966793152735 H 0.0 **** 0.06
19063 H 77.01869097711635 101.19586634812912 23.883487602706275 H 0.0 **** 0.06
19064 H 77.35620954397118 99.81933316096207 22.807600307229006 H 0.0 **** 0.06
19065 H 78.68564099950633 100.59875228029514 23.698548582965465 H 0.0 **** 0.06
19066 C 1.0177663286797838 28.698352278386835 9.11558098811561 C 0.0 **** -0.24
19067 H 0.9384164562245019 29.781359039260963 9.20319238119734 H 0.0 **** 0.06
19068 H 1.4080611734985382 28.440747278213394 8.130813767457937 H 0.0 **** 0.06
19069 H 0.03237028716671375 28.25007839522482 9.2451072849003 H 0.0 **** 0.06
19070 H 1.6919195513349337 28.320401610382476 9.883694618960178 H 0.0 **** 0.06
19071 C 89.23903383818046 65.65727342910951 18.79244392938617 C 0.0 **** -0.24
19072 H 90.04206988226957 65.67692152535024 19.528102033030812 H 0.0 **** 0.06
19073 H 89.60421216115651 65.21149237757666 17.86698516098077 H 0.0 **** 0.06
19074 H 88.90056758924982 66.67547015881561 18.59585305492931 H 0.0 **** 0.06
19075 H 88.407390640611 65.06643338309857 19.17788076445627 H 0.0 **** 0.06
19076 C 8.388707892724256 6.336944563026222 108.27818149103916 C 0.0 **** -0.24
19077 H 8.644601157167699 5.53253817211764 108.9677022327354 H 0.0 **** 0.06
19078 H 8.302078074895519 5.936263388641663 107.26855249991144 H 0.0 **** 0.06
19079 H 9.168890186468957 7.098330075553548 108.30192165646184 H 0.0 **** 0.06
19080 H 7.438953890146536 6.7819667160469805 108.57658982184711 H 0.0 **** 0.06
19081 C 91.02285129673999 46.11663776606292 77.27044135182547 C 0.0 **** -0.24
19082 H 90.57428271690742 46.859868399241975 76.6116042725061 H 0.0 **** 0.06
19083 H 91.2702401709185 46.579838174538565 78.22606681879671 H 0.0 **** 0.06
19084 H 91.92927361601807 45.72263732383942 76.81087080118226 H 0.0 **** 0.06
19085 H 90.31567900812013 45.30195897280731 77.43369513421436 H 0.0 **** 0.06
19086 C 105.88612472058638 93.20399551646547 99.22630365638005 C 0.0 **** -0.24
19087 H 106.13558214610059 93.32330540360913 100.28108612350962 H 0.0 **** 0.06
19088 H 105.08871828839611 92.46811075224844 99.12348122808672 H 0.0 **** 0.06
19089 H 106.76675687771159 92.86397328160311 98.68163703221714 H 0.0 **** 0.06
19090 H 105.5545257958526 94.15970890958047 98.82102116013442 H 0.0 **** 0.06
19091 C 29.471769533169038 67.93494170536718 22.658103359847743 C 0.0 **** -0.24
19092 H 30.04511431655368 68.50814411151315 21.92951113799768 H 0.0 **** 0.06
19093 H 28.579353357498746 68.49599106236133 22.939108614320347 H 0.0 **** 0.06
19094 H 30.082328287316273 67.75533359663449 23.541951030808093 H 0.0 **** 0.06
19095 H 29.177661241425824 66.9816853909373 22.21956083506437 H 0.0 **** 0.06
19096 C 70.04742004404233 83.47549561713345 76.9492640005249 C 0.0 **** -0.24
19097 H 71.04635822554809 83.21043412382805 77.29485154520687 H 0.0 **** 0.06
19098 H 70.06471678202257 84.47905257859908 76.52261756823479 H 0.0 **** 0.06
19099 H 69.35364341492703 83.44942306714917 77.78878648981227 H 0.0 **** 0.06
19100 H 69.72631665493725 82.76311742343762 76.18902205972921 H 0.0 **** 0.06
19101 C 7.236251214103646 12.240626918375312 56.07081388924023 C 0.0 **** -0.24
19102 H 7.114215684853463 12.438907525107084 57.135037986149754 H 0.0 **** 0.06
19103 H 7.123239483494729 13.170501634800758 55.51292747406598 H 0.0 **** 0.06
19104 H 6.479882459588993 11.526451688381627 55.744924455003925 H 0.0 **** 0.06
19105 H 8.228773341677112 11.827512484785188 55.89020057755661 H 0.0 **** 0.06
19106 C 88.21526005433728 34.67826866544442 64.5639904483316 C 0.0 **** -0.24
19107 H 88.56342826396994 33.81891969391552 65.13897411378062 H 0.0 **** 0.06
19108 H 88.70163715299064 35.582157621880185 64.9324955346766 H 0.0 **** 0.06
19109 H 87.13517619427218 34.77401437292173 64.67460451696931 H 0.0 **** 0.06
19110 H 88.46203730711855 34.53485380116098 63.51265797885861 H 0.0 **** 0.06
19111 C 38.1128485077532 33.38567709985455 76.32054190365001 C 0.0 **** -0.24
19112 H 37.90124301155703 33.80420173611773 75.33688135362216 H 0.0 **** 0.06
19113 H 38.19964017129422 32.301214775772735 76.24232670239036 H 0.0 **** 0.06
19114 H 37.30149297049422 33.636600755852925 77.00326683966014 H 0.0 **** 0.06
19115 H 39.04766147229731 33.799570931946505 76.69831229697257 H 0.0 **** 0.06
19116 C 39.09093546781804 3.2314611662074917 51.39756821867155 C 0.0 **** -0.24
19117 H 39.38052407759993 2.1904627616248318 51.543953549040964 H 0.0 **** 0.06
19118 H 38.07553265762124 3.3804746129467134 51.76650730790146 H 0.0 **** 0.06
19119 H 39.13082783349077 3.472231671480918 50.335206213577464 H 0.0 **** 0.06
19120 H 39.77556299293923 3.8801207054571645 51.94371270481645 H 0.0 **** 0.06
19121 C 28.330020738062046 31.43818108357148 67.0141499502454 C 0.0 **** -0.24
19122 H 28.34169339002841 32.2550839274771 66.29237826063829 H 0.0 **** 0.06
19123 H 27.385926297434025 30.89811612822055 66.93726410099397 H 0.0 **** 0.06
19124 H 28.436991272781057 31.841450208306526 68.0215501794308 H 0.0 **** 0.06
19125 H 29.15547199200458 30.75807407028168 66.80540725991882 H 0.0 **** 0.06
19126 C 37.82885834387112 78.30593665203446 8.878139223012285 C 0.0 **** -0.24
19127 H 36.813421597596665 77.9490578424834 8.708087590467194 H 0.0 **** 0.06
19128 H 37.90062854553038 79.35220691607458 8.579975732033537 H 0.0 **** 0.06
19129 H 38.527295478620346 77.71073789474684 8.288975472147373 H 0.0 **** 0.06
19130 H 38.07408775373688 78.21174395483285 9.935518097400916 H 0.0 **** 0.06
19131 C 43.16430547026863 102.02372176745574 81.8795492255006 C 0.0 **** -0.24
19132 H 43.69838109682982 102.62767591769932 81.14474954988276 H 0.0 **** 0.06
19133 H 42.62188432992386 101.22743114856988 81.36903138937083 H 0.0 **** 0.06
19134 H 42.460320660570176 102.65239359661999 82.42292375747311 H 0.0 **** 0.06
19135 H 43.87817266684095 101.58791620714429 82.57812203814478 H 0.0 **** 0.06
19136 C 21.866777930370965 63.708462958320524 71.14698776575159 C 0.0 **** -0.24
19137 H 22.461490398344996 62.931454134453105 70.66839174507832 H 0.0 **** 0.06
19138 H 21.21818326093513 64.17744299252902 70.40578358357126 H 0.0 **** 0.06
19139 H 22.529614039788758 64.4600335490311 71.57729331475656 H 0.0 **** 0.06
19140 H 21.258026477747595 63.26692919240381 71.93551958292332 H 0.0 **** 0.06
19141 C 45.803790472986925 102.07220027933282 2.4997347210315013 C 0.0 **** -0.24
19142 H 45.53168599676246 101.46266396103334 1.6378417401509182 H 0.0 **** 0.06
19143 H 45.28617280541573 103.03015981908526 2.444215686501849 H 0.0 **** 0.06
19144 H 46.880747162643914 102.24018284810761 2.499812900527246 H 0.0 **** 0.06
19145 H 45.5159389356335 101.55527376027669 3.415907410064875 H 0.0 **** 0.06
19146 C 56.64863512555894 90.3447074200263 4.458899255931158 C 0.0 **** -0.24
19147 H 57.34909528694442 89.71890212674597 3.905604419633562 H 0.0 **** 0.06
19148 H 56.155964875846564 91.03332128077712 3.7715144263149796 H 0.0 **** 0.06
19149 H 57.189825069911876 90.91265584243321 5.216324465832145 H 0.0 **** 0.06
19150 H 55.901835399091 89.71482275076946 4.941456295911394 H 0.0 **** 0.06
19151 C 103.95731686439058 40.238475805046534 16.93562095244195 C 0.0 **** -0.24
19152 H 103.42596279955526 39.514556635487736 16.317269281156257 H 0.0 **** 0.06
19153 H 105.01636950409086 40.2288011248736 16.677912260101323 H 0.0 **** 0.06
19154 H 103.83635987963275 39.976075109846306 17.986918330194896 H 0.0 **** 0.06
19155 H 103.54922168404254 41.23462212336031 16.760764539672834 H 0.0 **** 0.06
19156 C 51.027617625015125 48.34679284875994 76.11050948274885 C 0.0 **** -0.24
19157 H 50.779814122623094 47.99725163451814 75.10759957051727 H 0.0 **** 0.06
19158 H 52.09663964728003 48.22743753473182 76.28250080677526 H 0.0 **** 0.06
19159 H 50.472892110158625 47.76217486367906 76.84494689830967 H 0.0 **** 0.06
19160 H 50.757789714751055 49.39903483271157 76.20492669846436 H 0.0 **** 0.06
19161 C 51.245195556624374 98.44592826078122 21.748842774885816 C 0.0 **** -0.24
19162 H 50.82217622217053 99.42945138084372 21.542797127511847 H 0.0 **** 0.06
19163 H 51.72609113648604 98.45572071187286 22.726716175307416 H 0.0 **** 0.06
19164 H 51.98066425152244 98.19936702803534 20.983912609863296 H 0.0 **** 0.06
19165 H 50.44918134559474 97.7005430182565 21.741977064504226 H 0.0 **** 0.06
19166 C 104.44404000555453 17.191026518346817 48.87001777969675 C 0.0 **** -0.24
19167 H 104.73290260361871 16.731759240199395 47.924457708996215 H 0.0 **** 0.06
19168 H 104.54879042410941 16.46297851300264 49.67442645377156 H 0.0 **** 0.06
19169 H 103.40642320277166 17.52038303132352 48.80993822781062 H 0.0 **** 0.06
19170 H 105.08705994024278 18.0481878653829 49.06787281408435 H 0.0 **** 0.06
19171 C 96.72104580880065 18.38269649363363 109.37264655146717 C 0.0 **** -0.24
19172 H 96.95585142575254 18.107438559810106 110.40119178153518 H 0.0 **** 0.06
19173 H 95.72959438202093 18.0101094948146 109.11524247696713 H 0.0 **** 0.06
19174 H 97.46046631137625 17.944457639503185 108.70272426856243 H 0.0 **** 0.06
19175 H 96.73974864194133 19.467633491136866 109.2745102809065 H 0.0 **** 0.06
19176 C 12.818851199837411 46.0220974764546 18.384230694724696 C 0.0 **** -0.24
19177 H 12.761361320087776 45.074051224436886 17.849411956880296 H 0.0 **** 0.06
19178 H 12.454431226325056 45.88701854091759 19.403267836295967 H 0.0 **** 0.06
19179 H 12.204028121694314 46.764070347292375 17.874089794415788 H 0.0 **** 0.06
19180 H 13.853543762528915 46.3627057046367 18.408911756468065 H 0.0 **** 0.06
19181 C 69.13593848592032 108.4200583770414 73.68812535000454 C 0.0 **** -0.24
19182 H 69.68023319672817 109.36321306309077 73.63859377772796 H 0.0 **** 0.06
19183 H 68.26090824881707 108.47147655748424 73.04038843780678 H 0.0 **** 0.06
19184 H 68.81860800946822 108.23859869946159 74.71514123673519 H 0.0 **** 0.06
19185 H 69.78455370615943 107.60831541125638 73.36005755974499 H 0.0 **** 0.06
19186 C 2.8867063786026392 64.87828321234367 16.064092004185227 C 0.0 **** -0.24
19187 H 1.976343586339567 64.3457351051597 15.790850517339365 H 0.0 **** 0.06
19188 H 3.1709945945379445 65.5503302960975 15.253782286417291 H 0.0 **** 0.06
19189 H 3.6883873402612153 64.16033140550972 16.2393653336743 H 0.0 **** 0.06
19190 H 2.7109607224676893 65.45559826834749 16.971541524031025 H 0.0 **** 0.06
19191 C 12.61504388936364 6.2987164223129355 25.04762073387792 C 0.0 **** -0.24
19192 H 12.98546225818718 6.498246473648152 26.052355910589625 H 0.0 **** 0.06
19193 H 11.657282658464144 6.801870018332181 24.90725389552466 H 0.0 **** 0.06
19194 H 12.484341627189075 5.225239908878905 24.91473767598268 H 0.0 **** 0.06
19195 H 13.331250418817554 6.6706326079248015 24.315537147361283 H 0.0 **** 0.06
19196 C 23.5500462554106 54.187069298158804 15.359857918493859 C 0.0 **** -0.24
19197 H 22.863560196896255 53.364862098061735 15.55843285749728 H 0.0 **** 0.06
19198 H 24.47673456974051 53.794612329371944 14.940409245581122 H 0.0 **** 0.06
19199 H 23.76662746337164 54.71318055601955 16.289561304194876 H 0.0 **** 0.06
19200 H 23.093395585972814 54.87784412910639 14.650005654951812 H 0.0 **** 0.06
19201 C 37.92281671257558 108.33821352894073 75.74594404759736 C 0.0 **** -0.24
19202 H 36.98199318657015 108.40741360340854 76.29147523658895 H 0.0 **** 0.06
19203 H 38.67218867151159 107.85358766403604 76.37320108360649 H 0.0 **** 0.06
19204 H 38.26295687782368 109.33904798039961 75.47976941017441 H 0.0 **** 0.06
19205 H 37.77426709833419 107.75181609411341 74.8393857716249 H 0.0 **** 0.06
19206 C 53.315201919544165 2.9866821247888815 84.9964330511948 C 0.0 **** -0.24
19207 H 53.574697458165076 3.8344512681420895 85.63051223281263 H 0.0 **** 0.06
19208 H 54.05911896546539 2.199770067839231 85.11946024620056 H 0.0 **** 0.06
19209 H 53.292136328264746 3.305780012351958 83.95491716996656 H 0.0 **** 0.06
19210 H 52.33333256408906 2.6075100196446046 85.2811065224667 H 0.0 **** 0.06
19211 C 28.31155983455625 97.05790723117019 88.68349487426786 C 0.0 **** -0.24
19212 H 28.083142287208062 98.11193141953851 88.84235113421306 H 0.0 **** 0.06
19213 H 27.87839146849879 96.46668949209788 89.49123721574506 H 0.0 **** 0.06
19214 H 29.39262435481149 96.91926049780704 88.66991363828313 H 0.0 **** 0.06
19215 H 27.89134627157992 96.73442496865579 87.73044675327054 H 0.0 **** 0.06
19216 C 45.90712842851693 47.51520374214448 65.09047074469032 C 0.0 **** -0.24
19217 H 45.24391370469988 46.88842163196216 65.68754304719403 H 0.0 **** 0.06
19218 H 45.43562611272657 47.73153291659497 64.13138150976778 H 0.0 **** 0.06
19219 H 46.84779359351205 46.991364174431794 64.92363858975324 H 0.0 **** 0.06
19220 H 46.09969693313997 48.447627718734225 65.6208392454987 H 0.0 **** 0.06
19221 C 7.327193132996243 49.988023649164234 56.8343634699922 C 0.0 **** -0.24
19222 H 6.6911851501959205 50.82928766047394 56.55850556520243 H 0.0 **** 0.06
19223 H 6.716290695680058 49.19990172234907 57.273820944719496 H 0.0 **** 0.06
19224 H 8.07180456785575 50.31886692672265 57.55961479802076 H 0.0 **** 0.06
19225 H 7.830554002789938 49.6060906647848 55.94632524932632 H 0.0 **** 0.06
19226 C 38.89063293433583 40.47790050887855 73.67942748088925 C 0.0 **** -0.24
19227 H 39.434401651742235 39.5676416349411 73.93083192770544 H 0.0 **** 0.06
19228 H 39.37239536430144 41.33174454619828 74.1568740577479 H 0.0 **** 0.06
19229 H 37.8622960250985 40.397233908328644 74.03126401630662 H 0.0 **** 0.06
19230 H 38.894753777750424 40.616464923173766 72.59847245676438 H 0.0 **** 0.06
19231 C 9.216209887895317 69.82413919398456 21.27740944958623 C 0.0 **** -0.24
19232 H 10.173560072877166 69.99557881294709 20.784651928756887 H 0.0 **** 0.06
19233 H 9.075247899406563 68.7540063440593 21.43308322201662 H 0.0 **** 0.06
19234 H 8.410937552584798 70.20842746251537 20.650233298275793 H 0.0 **** 0.06
19235 H 9.20515631811422 70.33637744560367 22.238619402135043 H 0.0 **** 0.06
19236 C 32.104938005598 2.9214351066894304 44.97823535584317 C 0.0 **** -0.24
19237 H 32.20093163300777 3.978024788107998 44.72842677530164 H 0.0 **** 0.06
19238 H 32.91193941322149 2.3615414290836485 44.50516804337212 H 0.0 **** 0.06
19239 H 31.1454392744331 2.5492052410998163 44.61775369641367 H 0.0 **** 0.06
19240 H 32.15999817550227 2.7961882159711626 46.059289203889335 H 0.0 **** 0.06
19241 C 49.38446242495479 90.35759542145631 91.17859993022574 C 0.0 **** -0.24
19242 H 49.98639205601012 91.12708834734545 91.66239765576258 H 0.0 **** 0.06
19243 H 48.44056551430964 90.79073453286658 90.84479596321557 H 0.0 **** 0.06
19244 H 49.185771072443345 89.55375550041619 91.88634558633213 H 0.0 **** 0.06
19245 H 49.92542863793301 89.96078992586129 90.31988124031244 H 0.0 **** 0.06
19246 C 102.89389072087499 58.559195221438415 90.62742069448043 C 0.0 **** -0.24
19247 H 102.85106740922853 57.76115900942543 91.3677457352195 H 0.0 **** 0.06
19248 H 102.7826467026548 58.13464518007993 89.62938917044079 H 0.0 **** 0.06
19249 H 103.85427059747241 59.070416928375096 90.70032313873611 H 0.0 **** 0.06
19250 H 102.08896387708194 59.27037172859093 90.81243584413454 H 0.0 **** 0.06
19251 C 83.55087638801234 17.980061783976033 16.71472295153245 C 0.0 **** -0.24
19252 H 84.27710548807846 17.770210498454848 17.500469496065477 H 0.0 **** 0.06
19253 H 83.10529327788069 18.960910758943186 16.884907899176028 H 0.0 **** 0.06
19254 H 82.77108000275726 17.219344688354337 16.7293826267325 H 0.0 **** 0.06
19255 H 84.0505207333648 17.970302933976782 15.74624934040773 H 0.0 **** 0.06
19256 C 32.048105516952546 87.12257030146577 59.254765902200774 C 0.0 **** -0.24
19257 H 31.345127353497475 86.3806824925937 59.63403897006387 H 0.0 **** 0.06
19258 H 31.731394733216007 88.11672959543318 59.56864867546301 H 0.0 **** 0.06
19259 H 32.07325285464543 87.07537915891032 58.16641787236048 H 0.0 **** 0.06
19260 H 33.04194588622789 86.91523562035945 59.65061117364877 H 0.0 **** 0.06
19261 C 8.266924247988626 86.83017397281534 0.7068830621904016 C 0.0 **** -0.24
19262 H 9.183514582718288 86.34194538101423 1.0357641845993193 H 0.0 **** 0.06
19263 H 7.7683122370684 87.28510105535355 1.563501610999368 H 0.0 **** 0.06
19264 H 7.6056872923500976 86.09311153687108 0.2506325334639641 H 0.0 **** 0.06
19265 H 8.509418060268516 87.60196547675264 -0.023907954116438646 H 0.0 **** 0.06
19266 C 48.513562239412735 12.465712266247149 96.5981258961126 C 0.0 **** -0.24
19267 H 48.54590367083156 11.376866405957909 96.63927925191183 H 0.0 **** 0.06
19268 H 49.52523338515105 12.86270281908137 96.68555522733939 H 0.0 **** 0.06
19269 H 47.90265955200971 12.841631100575405 97.41911726130506 H 0.0 **** 0.06
19270 H 48.07957134758925 12.78056273487897 95.64957388999373 H 0.0 **** 0.06
19271 C 99.83682125090472 57.975211045167384 44.369771640605165 C 0.0 **** -0.24
19272 H 99.85420835985117 58.24299753369189 45.4256470537145 H 0.0 **** 0.06
19273 H 99.82323104008924 56.889493408439705 44.27064839910446 H 0.0 **** 0.06
19274 H 100.72526206754634 58.37317604620944 43.879239635920555 H 0.0 **** 0.06
19275 H 98.94615720533352 58.39447828560424 43.90336374176184 H 0.0 **** 0.06
19276 C 101.41493518184002 74.69664350650324 44.67455893149099 C 0.0 **** -0.24
19277 H 102.07464272673243 75.43201106888915 45.1355539273668 H 0.0 **** 0.06
19278 H 101.9327309015737 74.21348064627149 43.84554979900582 H 0.0 **** 0.06
19279 H 100.51936613319722 75.19490420838558 44.30362065426442 H 0.0 **** 0.06
19280 H 101.13339161475731 73.94699520534691 45.41393535696079 H 0.0 **** 0.06
19281 C 9.744752741947337 97.59305630488177 22.576378087006816 C 0.0 **** -0.24
19282 H 9.132321951899257 96.803764597478 23.013842436437074 H 0.0 **** 0.06
19283 H 10.546506801124309 97.8547392485984 23.268433311823372 H 0.0 **** 0.06
19284 H 9.126391853192985 98.4703496720586 22.387783292006276 H 0.0 **** 0.06
19285 H 10.173718680392568 97.24177241852092 21.63852539998996 H 0.0 **** 0.06
19286 C 52.85096587520755 67.32390262539201 72.41383204345033 C 0.0 **** -0.24
19287 H 52.485035591967204 67.1966226969449 71.39576542737422 H 0.0 **** 0.06
19288 H 52.7172183539611 68.36163935422907 72.72141294239782 H 0.0 **** 0.06
19289 H 53.910239779709514 67.06636188066715 72.45358774556018 H 0.0 **** 0.06
19290 H 52.29298979267068 66.67101876092013 73.08517414975006 H 0.0 **** 0.06
19291 C 4.278327579047897 12.056743452980115 37.633354654305236 C 0.0 **** -0.24
19292 H 3.2885557911355647 11.601104660028597 37.59932559437331 H 0.0 **** 0.06
19293 H 4.592015695445099 12.166895447682876 38.672127122328504 H 0.0 **** 0.06
19294 H 4.244035162296569 13.036093977385661 37.15762009520813 H 0.0 **** 0.06
19295 H 4.988372854619172 11.42087315828934 37.1052755866892 H 0.0 **** 0.06
19296 C 27.643562139314398 87.56750252550809 60.68003287443145 C 0.0 **** -0.24
19297 H 26.924173360707798 87.42065925709765 61.48475433654727 H 0.0 **** 0.06
19298 H 27.838548498093076 88.63273134418114 60.55744523185524 H 0.0 **** 0.06
19299 H 27.238170361371772 87.16341882488659 59.75204485373507 H 0.0 **** 0.06
19300 H 28.5730125231444 87.05347162202096 60.924211209007694 H 0.0 **** 0.06
19301 C 78.21100823048641 91.68462726656219 22.794809541951324 C 0.0 **** -0.24
19302 H 78.6860550664664 91.24845277678031 21.916544695781653 H 0.0 **** 0.06
19303 H 77.29105442631692 91.14278827323352 23.016458843619517 H 0.0 **** 0.06
19304 H 77.97812684906 92.7309471835585 22.599285337520257 H 0.0 **** 0.06
19305 H 78.88834276960819 91.61469793600372 23.646548777382677 H 0.0 **** 0.06
19306 C 8.407371726331505 8.352537991495694 54.37358334548386 C 0.0 **** -0.24
19307 H 9.473939594370762 8.573939888402379 54.377452692084276 H 0.0 **** 0.06
19308 H 7.8474629100456355 9.255632339927999 54.613757266077 H 0.0 **** 0.06
19309 H 8.193156342214749 7.582823172255701 55.11581362422278 H 0.0 **** 0.06
19310 H 8.11460236715007 7.9952199827113475 53.38574132283312 H 0.0 **** 0.06
19311 C 51.93139524695067 0.8293981049510819 97.20192743947666 C 0.0 **** -0.24
19312 H 52.0594543698723 1.422882338950103 98.10695570884943 H 0.0 **** 0.06
19313 H 51.51232218605634 1.4552478153155164 96.41396819095604 H 0.0 **** 0.06
19314 H 51.254477029205646 -0.0006828667024763035 97.4057906424114 H 0.0 **** 0.06
19315 H 52.897848200360386 0.43969779198170045 96.88375426311421 H 0.0 **** 0.06
19316 C 85.60348883355404 26.486283321939077 18.918770754275556 C 0.0 **** -0.24
19317 H 85.8140308503143 25.46395687373364 18.60741489269583 H 0.0 **** 0.06
19318 H 85.27887269455623 26.489317403255487 19.95968720581925 H 0.0 **** 0.06
19319 H 84.81627518475258 26.903145541274146 18.290713896771877 H 0.0 **** 0.06
19320 H 86.50560454192122 27.089368129756966 18.818208318161908 H 0.0 **** 0.06
19321 C 34.040190466533545 99.32067674932321 18.358955243416293 C 0.0 **** -0.24
19322 H 34.781075971947075 99.95200138359941 17.867149591349175 H 0.0 **** 0.06
19323 H 33.104493362605666 99.87115777919855 18.458098790447977 H 0.0 **** 0.06
19324 H 34.40288780656715 99.0377105010214 19.34701475286098 H 0.0 **** 0.06
19325 H 33.87294614708952 98.42405209199363 17.762730965560348 H 0.0 **** 0.06
19326 C 16.966530240061076 37.95304055460724 86.61953016780706 C 0.0 **** -0.24
19327 H 17.890549745692482 37.57308007359018 87.05575243650753 H 0.0 **** 0.06
19328 H 16.864771112431924 37.57727940299554 85.60096325976286 H 0.0 **** 0.06
19329 H 16.9933081889057 39.04222456788135 86.60443220063394 H 0.0 **** 0.06
19330 H 16.118814910302333 37.618484708202345 87.21594602726537 H 0.0 **** 0.06
19331 C 12.13249024153231 77.10542219608669 10.958385638647627 C 0.0 **** -0.24
19332 H 12.406566357895827 76.73393212730582 9.970944360617523 H 0.0 **** 0.06
19333 H 12.030730623501142 76.26654762084951 11.647232003153817 H 0.0 **** 0.06
19334 H 11.185140508764547 77.641322236659 10.893705422180858 H 0.0 **** 0.06
19335 H 12.908212446364118 77.78109485474533 11.319197778835871 H 0.0 **** 0.06
19336 C 29.716266020063557 37.391804887549654 50.70191827178864 C 0.0 **** -0.24
19337 H 30.498961252027613 37.29933434623263 51.45544682403849 H 0.0 **** 0.06
19338 H 30.169101469963877 37.446441693370446 49.711693669871856 H 0.0 **** 0.06
19339 H 29.137944931411084 38.29625858989405 50.887573935458086 H 0.0 **** 0.06
19340 H 29.05886029783808 36.52322830240976 50.754419299956155 H 0.0 **** 0.06
19341 C 107.34444757045208 100.90172194785625 32.34656796530176 C 0.0 **** -0.24
19342 H 108.36345490208237 101.28115360259365 32.263257705548 H 0.0 **** 0.06
19343 H 107.16438636117658 100.56616459580091 33.36795285599169 H 0.0 **** 0.06
19344 H 107.2105657292417 100.06685638252603 31.658844915581284 H 0.0 **** 0.06
19345 H 106.64035886556474 101.69564016563933 32.094999120920306 H 0.0 **** 0.06
19346 C 101.2277664650428 4.978051964353822 64.45715011095845 C 0.0 **** -0.24
19347 H 102.27965721628402 4.85520094662086 64.71844194838471 H 0.0 **** 0.06
19348 H 100.98212351820735 6.040586940532554 64.43028142034494 H 0.0 **** 0.06
19349 H 100.60843768051768 4.481048620623104 65.20441140380024 H 0.0 **** 0.06
19350 H 101.04241381047007 4.536407699641755 63.47800987527725 H 0.0 **** 0.06
19351 C 80.02770750080367 80.536561989995 29.324315851181723 C 0.0 **** -0.24
19352 H 80.30044968169068 79.48232114298986 29.26298987419807 H 0.0 **** 0.06
19353 H 79.80482247888892 80.79410392781546 30.36019389781147 H 0.0 **** 0.06
19354 H 79.14977765645256 80.72028359744485 28.70595239616216 H 0.0 **** 0.06
19355 H 80.85756413386957 81.14692964625999 28.968039051316396 H 0.0 **** 0.06
19356 C 6.880955422332221 3.2735269914462606 101.45533153503331 C 0.0 **** -0.24
19357 H 6.70456316233016 2.261994900379591 101.82138135768321 H 0.0 **** 0.06
19358 H 7.111863360632952 3.9288739834175885 102.29554028260756 H 0.0 **** 0.06
19359 H 5.987929961305284 3.6353970081638636 100.94610519722758 H 0.0 **** 0.06
19360 H 7.718876317818058 3.2670391929575544 100.75839227399234 H 0.0 **** 0.06
19361 C 90.36075636393359 46.94870912056314 97.38070986065537 C 0.0 **** -0.24
19362 H 89.49586999276984 47.611781229340636 97.37742548601312 H 0.0 **** 0.06
19363 H 90.45903933152059 46.477298520714896 96.40205136806168 H 0.0 **** 0.06
19364 H 90.22673574749315 46.18075013783067 98.14220399289701 H 0.0 **** 0.06
19365 H 91.25906958714242 47.525078777138845 97.59821653830667 H 0.0 **** 0.06
19366 C 94.8201206983942 41.313161428842335 32.53521743976023 C 0.0 **** -0.24
19367 H 95.8960171744742 41.43025669375774 32.670370707550234 H 0.0 **** 0.06
19368 H 94.5093988712884 40.341235000143314 32.919528336563076 H 0.0 **** 0.06
19369 H 94.57874163125373 41.37992199643287 31.47468785353476 H 0.0 **** 0.06
19370 H 94.29965066009751 42.10228390765769 33.077637481922864 H 0.0 **** 0.06
19371 C 26.855635674505947 100.67631499041507 60.12336321443422 C 0.0 **** -0.24
19372 H 26.572500842071918 101.63018724384119 59.67914005211884 H 0.0 **** 0.06
19373 H 27.87025029222889 100.74532893367264 60.515801900075985 H 0.0 **** 0.06
19374 H 26.810887178066366 99.8950432989478 59.365136375326244 H 0.0 **** 0.06
19375 H 26.166662147869715 100.43565793971219 60.933611063174226 H 0.0 **** 0.06
19376 C 81.64632719950237 50.44025839852774 96.17802751460965 C 0.0 **** -0.24
19377 H 81.66092269409495 49.437298902129655 95.75124057404354 H 0.0 **** 0.06
19378 H 80.69203251178641 50.60800099173934 96.67604445412375 H 0.0 **** 0.06
19379 H 81.77627909803266 51.17411049518121 95.38305554455638 H 0.0 **** 0.06
19380 H 82.4561106914689 50.53857761697437 96.90091885158506 H 0.0 **** 0.06
19381 C 40.13030828388929 37.63995747598858 1.6540221151727508 C 0.0 **** -0.24
19382 H 41.085377575510705 37.247026131134305 1.3035188565693545 H 0.0 **** 0.06
19383 H 39.36652347843588 36.865513338538335 1.5705295327490347 H 0.0 **** 0.06
19384 H 39.84652682579065 38.497562711069975 1.0447256631631348 H 0.0 **** 0.06
19385 H 40.22524889847864 37.948518574749244 2.6947517408091812 H 0.0 **** 0.06
19386 C 52.82490817822458 65.03721183619967 11.742440603710861 C 0.0 **** -0.24
19387 H 52.55063300135122 64.00873968243747 11.977442784208137 H 0.0 **** 0.06
19388 H 52.68470137170528 65.215243519757 10.675994326558694 H 0.0 **** 0.06
19389 H 53.8689296847432 65.20472622786099 12.005550551338075 H 0.0 **** 0.06
19390 H 52.19321191087934 65.71975614065781 12.311225253185526 H 0.0 **** 0.06
19391 C 70.40779035846671 103.09293786951275 77.93741066551534 C 0.0 **** -0.24
19392 H 69.66326646851243 103.77795974508503 78.34349943567938 H 0.0 **** 0.06
19393 H 71.35161088198475 103.22708754023063 78.46660494467685 H 0.0 **** 0.06
19394 H 70.55129672724985 103.30200906404991 76.87722387494834 H 0.0 **** 0.06
19395 H 70.06245775309009 102.0670617251013 78.06228400161346 H 0.0 **** 0.06
19396 C 52.79255533173905 27.790424551648442 25.820870099013547 C 0.0 **** -0.24
19397 H 52.47664677696681 28.749055557098615 25.408128903472928 H 0.0 **** 0.06
19398 H 52.90296150909344 27.87994810548821 26.901381021257507 H 0.0 **** 0.06
19399 H 53.74774842484333 27.503137278618055 25.38066552047576 H 0.0 **** 0.06
19400 H 52.04446251804859 27.032540968060175 25.592566830167414 H 0.0 **** 0.06
19401 C 8.409388529437086 2.9360752942193358 93.20351109283183 C 0.0 **** -0.24
19402 H 7.356381605114633 3.1727944835058395 93.05664645052215 H 0.0 **** 0.06
19403 H 8.885945014159878 2.7829558509126144 92.23557918218505 H 0.0 **** 0.06
19404 H 8.498327186646256 2.027293235197675 93.80039721694784 H 0.0 **** 0.06
19405 H 8.898610251854189 3.760374143191939 93.72349419934064 H 0.0 **** 0.06
19406 C 8.394828369626538 58.74263309664536 81.30983034223902 C 0.0 **** -0.24
19407 H 9.252875568007369 59.37175743152625 81.07527888064804 H 0.0 **** 0.06
19408 H 8.328118917957397 57.933787887555184 80.5821799160287 H 0.0 **** 0.06
19409 H 7.484930984898853 59.34031941133463 81.27305260200627 H 0.0 **** 0.06
19410 H 8.51428419980391 58.32373470901797 82.30938141434108 H 0.0 **** 0.06
19411 C 38.56123257261664 98.02710223765519 70.53678179314365 C 0.0 **** -0.24
19412 H 39.33842733874657 98.75010766287645 70.28960715425885 H 0.0 **** 0.06
19413 H 38.581292875297514 97.82413733629869 71.60757388355196 H 0.0 **** 0.06
19414 H 38.73947093623049 97.10087354522221 69.98880145594138 H 0.0 **** 0.06
19415 H 37.588260113757805 98.43094583866198 70.26007307286298 H 0.0 **** 0.06
19416 C 44.298666538672876 69.25912293683956 39.47608087189593 C 0.0 **** -0.24
19417 H 44.27190867345348 68.28555891830564 38.98611964211884 H 0.0 **** 0.06
19418 H 43.69931703586579 69.22335860526329 40.386858585804276 H 0.0 **** 0.06
19419 H 43.89342477522621 70.01459587134212 38.803398487719676 H 0.0 **** 0.06
19420 H 45.32837440377122 69.5104680412783 39.72801768342231 H 0.0 **** 0.06
19421 C 49.77109767715959 7.024019071855916 57.599347606567505 C 0.0 **** -0.24
19422 H 49.8278235066243 8.096151823300302 57.78995309491398 H 0.0 **** 0.06
19423 H 50.597053696609095 6.521927633507273 58.1039293585269 H 0.0 **** 0.06
19424 H 49.835883170293215 6.841898875624549 56.526148655863096 H 0.0 **** 0.06
19425 H 48.824639789214245 6.636991985505086 57.97778570991687 H 0.0 **** 0.06
19426 C 49.49632555630427 92.58031282975992 73.48765364423947 C 0.0 **** -0.24
19427 H 49.77762822666017 92.03208815887741 74.38735939236449 H 0.0 **** 0.06
19428 H 48.849527464878236 93.41526023270715 73.75845793170996 H 0.0 **** 0.06
19429 H 48.96638943710781 91.91442294350473 72.80703172141315 H 0.0 **** 0.06
19430 H 50.39382311819236 92.9591248411504 72.99854378334663 H 0.0 **** 0.06
19431 C 108.62585458887838 72.92475371828198 106.8250214861173 C 0.0 **** -0.24
19432 H 108.15156392271587 73.19489620983111 105.88101920356536 H 0.0 **** 0.06
19433 H 108.39125565886474 71.88755180871173 107.06483060931009 H 0.0 **** 0.06
19434 H 108.2541802837376 73.5742243323473 107.61716033932782 H 0.0 **** 0.06
19435 H 109.70576980374724 73.04175682971949 106.73596391580725 H 0.0 **** 0.06
19436 C 43.18110997764383 100.70175599434901 12.163166813742475 C 0.0 **** -0.24
19437 H 43.745337423379695 100.25410554118366 11.345154396992903 H 0.0 **** 0.06
19438 H 43.30025091517437 101.78522246121963 12.136657383232386 H 0.0 **** 0.06
19439 H 43.55365426099219 100.3185499087632 13.113128767892103 H 0.0 **** 0.06
19440 H 42.12657950572416 100.44943867183832 12.057790101452174 H 0.0 **** 0.06
19441 C 64.31852127766791 71.41157580072718 71.73745749955867 C 0.0 **** -0.24
19442 H 63.785401702739364 71.86347063166602 70.90081692062637 H 0.0 **** 0.06
19443 H 64.09736356823157 71.96504018560108 72.65040127392894 H 0.0 **** 0.06
19444 H 65.39112597315079 71.44226988345372 71.54405134703705 H 0.0 **** 0.06
19445 H 64.00019386654992 70.37552250218806 71.8545604566425 H 0.0 **** 0.06
19446 C 91.24436334354863 89.85917392530757 55.34854003043779 C 0.0 **** -0.24
19447 H 91.43431672972585 90.89774429647662 55.6195347920837 H 0.0 **** 0.06
19448 H 92.04382422386902 89.2292627238399 55.7390500282072 H 0.0 **** 0.06
19449 H 91.2069256406723 89.76826171650868 54.26349155352682 H 0.0 **** 0.06
19450 H 90.29145408643853 89.54242006329127 55.77246313764334 H 0.0 **** 0.06
19451 C 23.997336651623613 93.33502048340495 104.58125711970077 C 0.0 **** -0.24
19452 H 23.675423769861865 92.51762060158279 103.9352521335338 H 0.0 **** 0.06
19453 H 24.72050412820961 92.96155826875406 105.3063175593264 H 0.0 **** 0.06
19454 H 23.133863084819247 93.74461450403336 105.10591989416407 H 0.0 **** 0.06
19455 H 24.458547985438926 94.11485060599901 103.97583089498255 H 0.0 **** 0.06
19456 C 56.17862606421426 60.43103159114486 32.69678996311932 C 0.0 **** -0.24
19457 H 57.164267475066936 60.63240508577334 33.11619380209321 H 0.0 **** 0.06
19458 H 55.477588195741475 60.2163039740752 33.504006707992374 H 0.0 **** 0.06
19459 H 56.23595981134912 59.57282993148175 32.02681485616732 H 0.0 **** 0.06
19460 H 55.83571447146261 61.303977870211725 32.14159964914688 H 0.0 **** 0.06
19461 C 53.37633022290357 72.85676428009116 35.80360921645007 C 0.0 **** -0.24
19462 H 53.13748710752253 71.82828327838044 35.53087910607107 H 0.0 **** 0.06
19463 H 53.273303563523825 73.49684071562274 34.927429142162225 H 0.0 **** 0.06
19464 H 54.40058178112559 72.9057996454469 36.172315208976556 H 0.0 **** 0.06
19465 H 52.69186438112911 73.19340814326037 36.5827044091659 H 0.0 **** 0.06
19466 C 41.51631964475038 48.43836369723442 16.715687568176534 C 0.0 **** -0.24
19467 H 41.53110060006702 48.53348710941259 15.630387666951279 H 0.0 **** 0.06
19468 H 41.446271737431786 47.38466787589789 16.98705872701619 H 0.0 **** 0.06
19469 H 40.656354661928646 48.97464048859666 17.115981533030734 H 0.0 **** 0.06
19470 H 42.432494129876176 48.85983347064206 17.129977844805367 H 0.0 **** 0.06
19471 C 46.93455561640551 38.378142435350895 108.58215059490533 C 0.0 **** -0.24
19472 H 47.58330106617089 38.42191063113182 109.45707948282276 H 0.0 **** 0.06
19473 H 46.26007144579152 37.526326511976606 108.67191485901448 H 0.0 **** 0.06
19474 H 47.54368728952983 38.266378478091156 107.68483052025215 H 0.0 **** 0.06
19475 H 46.35356951379659 39.29756892059589 108.51453463232744 H 0.0 **** 0.06
19476 C 26.69939178626248 9.036059936807568 93.17405533527939 C 0.0 **** -0.24
19477 H 25.958870301399287 8.775941274169666 93.9309147100341 H 0.0 **** 0.06
19478 H 26.480748874140176 8.497119182887719 92.25177444433756 H 0.0 **** 0.06
19479 H 27.692631535638043 8.762777716382754 93.52982418664907 H 0.0 **** 0.06
19480 H 26.663552081501848 10.109009070491977 92.98494017549132 H 0.0 **** 0.06
19481 C 8.307803389361823 97.80656845497246 105.02383601872083 C 0.0 **** -0.24
19482 H 9.179387520216835 98.12936812136229 105.59352923153807 H 0.0 **** 0.06
19483 H 8.029269072361501 96.79694507231925 105.32668771412276 H 0.0 **** 0.06
19484 H 8.545294009664588 97.81498790602473 103.9601837410074 H 0.0 **** 0.06
19485 H 7.477587829923436 98.4861230976126 105.21569915754529 H 0.0 **** 0.06
19486 C 68.73341289560568 17.848511065909918 78.82007896619433 C 0.0 **** -0.24
19487 H 68.50557377728865 18.852181449788418 79.17787208981616 H 0.0 **** 0.06
19488 H 67.98078461803536 17.543746833195883 78.09190427956798 H 0.0 **** 0.06
19489 H 68.73040719430924 17.15319154481716 79.65934923274102 H 0.0 **** 0.06
19490 H 69.71614655219776 17.84469017524202 78.34909297933422 H 0.0 **** 0.06
19491 C 72.89443746240761 47.923811200065245 106.91565433324934 C 0.0 **** -0.24
19492 H 72.16947819169036 47.197072902548655 107.28279652115431 H 0.0 **** 0.06
19493 H 73.18945764949189 48.585683307612214 107.72982339423623 H 0.0 **** 0.06
19494 H 72.44506278474444 48.51058056899086 106.11350967805711 H 0.0 **** 0.06
19495 H 73.77246670937768 47.400618846088776 106.53518839415904 H 0.0 **** 0.06
19496 C 53.93424213997574 42.6125531360977 34.192135401705855 C 0.0 **** -0.24
19497 H 53.41484349804213 42.789319049899426 33.24981020827738 H 0.0 **** 0.06
19498 H 53.4105785989924 43.12869640268601 34.99711149630048 H 0.0 **** 0.06
19499 H 54.95420045706226 42.9916334914926 34.12050418863578 H 0.0 **** 0.06
19500 H 53.95686445069944 41.54304407414417 34.39896724921334 H 0.0 **** 0.06
19501 C 65.05147948766808 95.25905496981255 70.5818756528265 C 0.0 **** -0.24
19502 H 65.71142426228259 95.0419092766067 69.7417396365793 H 0.0 **** 0.06
19503 H 64.74064672283315 96.30350950373416 70.53821048442191 H 0.0 **** 0.06
19504 H 65.58230681590823 95.07593357370499 71.51569026316629 H 0.0 **** 0.06
19505 H 64.17322439019499 94.61542947565808 70.5294439650793 H 0.0 **** 0.06
19506 C 67.40523954578316 92.25097075658225 0.3857681556205108 C 0.0 **** -0.24
19507 H 67.09147841448237 93.19985781688075 -0.04862237620842791 H 0.0 **** 0.06
19508 H 66.52577698895675 91.67896882385799 0.6830480047270981 H 0.0 **** 0.06
19509 H 68.02742844787736 92.43950634439899 1.2605499317937756 H 0.0 **** 0.06
19510 H 67.97611193941486 91.68519193919525 -0.34970165652140395 H 0.0 **** 0.06
19511 C 63.575543371295026 91.9787066355628 100.82624541812696 C 0.0 **** -0.24
19512 H 62.92653476765375 91.8756150404799 101.69620854789932 H 0.0 **** 0.06
19513 H 64.49262477152223 92.49139317540289 101.11536312678408 H 0.0 **** 0.06
19514 H 63.06213161980611 92.5572128841103 100.05798519131484 H 0.0 **** 0.06
19515 H 63.81735498846422 90.99039711412824 100.43614253348113 H 0.0 **** 0.06
19516 C 96.9938969418128 36.47279958149119 15.354107523391463 C 0.0 **** -0.24
19517 H 97.45993443431848 37.182529045383916 14.671233476835823 H 0.0 **** 0.06
19518 H 97.58579208483496 36.40502007077254 16.2675011933855 H 0.0 **** 0.06
19519 H 96.94370496010092 35.49216455323557 14.880252482891592 H 0.0 **** 0.06
19520 H 95.98682085414714 36.81073933420501 15.597496754449935 H 0.0 **** 0.06
19521 C 96.10135835425659 73.59212786403839 94.31996602807921 C 0.0 **** -0.24
19522 H 96.33266466437038 74.51311582293326 93.78542566317155 H 0.0 **** 0.06
19523 H 95.88698454570478 73.82163622100745 95.36384612569148 H 0.0 **** 0.06
19524 H 96.95513175630435 72.9156738318498 94.26419991607183 H 0.0 **** 0.06
19525 H 95.23230477851452 73.11704062402265 93.8653069919799 H 0.0 **** 0.06
19526 C 58.69847987863585 33.039537208610454 52.70042281037058 C 0.0 **** -0.24
19527 H 58.983189773231345 32.032746126466236 52.392608057105974 H 0.0 **** 0.06
19528 H 58.264706365387894 33.00460420073537 53.69980066141051 H 0.0 **** 0.06
19529 H 57.96668867324803 33.43989689851472 51.99904588204879 H 0.0 **** 0.06
19530 H 59.581030668440064 33.679994699647665 52.70909582376112 H 0.0 **** 0.06
19531 C 43.115079648311664 7.363516820355244 63.834863048575016 C 0.0 **** -0.24
19532 H 42.10464317516565 7.708940882561535 63.616241883227104 H 0.0 **** 0.06
19533 H 43.434835195288954 7.7642119434475205 64.79723393041786 H 0.0 **** 0.06
19534 H 43.7938799053496 7.707228793709874 63.05435990747176 H 0.0 **** 0.06
19535 H 43.12523456196132 6.273790834255067 63.87303455445176 H 0.0 **** 0.06
19536 C 11.264565907165348 108.17149799567964 67.24265318085772 C 0.0 **** -0.24
19537 H 10.999269571253521 108.63518315420548 66.29245120257198 H 0.0 **** 0.06
19538 H 10.361625912618024 108.01300267090183 67.83377207569237 H 0.0 **** 0.06
19539 H 11.94597851765235 108.82532322390675 67.78831549460337 H 0.0 **** 0.06
19540 H 11.751137430137916 107.21408807461145 67.0566740072121 H 0.0 **** 0.06
19541 C 21.080404121114924 40.10917193265756 18.383388778389758 C 0.0 **** -0.24
19542 H 20.258276486380737 40.54661382607347 17.817428904779547 H 0.0 **** 0.06
19543 H 20.71919179631996 39.2435956448839 18.93960479566175 H 0.0 **** 0.06
19544 H 21.476939077192895 40.84890626617204 19.07879154244796 H 0.0 **** 0.06
19545 H 21.867555060763465 39.796571791578074 17.696791775069755 H 0.0 **** 0.06
19546 C 51.11066696135617 90.01546765683122 69.24949911820636 C 0.0 **** -0.24
19547 H 50.61221283546297 89.5829637579067 68.38167208950176 H 0.0 **** 0.06
19548 H 50.774297976603634 89.50502766623273 70.15274983499796 H 0.0 **** 0.06
19549 H 50.86416839571734 91.07507796391576 69.31835640705737 H 0.0 **** 0.06
19550 H 52.18887741127622 89.89852843753857 69.14571447300006 H 0.0 **** 0.06
19551 C 16.71144379644079 51.258946858823265 39.44929855796326 C 0.0 **** -0.24
19552 H 15.751777324419095 51.706843231022106 39.1923512086303 H 0.0 **** 0.06
19553 H 17.45235997429657 52.04530170495332 39.59177000153298 H 0.0 **** 0.06
19554 H 17.032207663124268 50.599234563867185 38.64205746970816 H 0.0 **** 0.06
19555 H 16.60994414980763 50.68413038502001 40.369102689171655 H 0.0 **** 0.06
19556 C 27.589451053605785 63.56986942046039 61.00402727449432 C 0.0 **** -0.24
19557 H 27.766245810077436 64.01414973830349 61.983561080878076 H 0.0 **** 0.06
19558 H 26.54723854137967 63.25920327151236 60.92946525081118 H 0.0 **** 0.06
19559 H 28.237873990067698 62.703482015897166 60.87595154176449 H 0.0 **** 0.06
19560 H 27.806766358674736 64.30431687715216 60.2285784703779 H 0.0 **** 0.06
19561 C 85.00005695130443 47.50618720245245 107.61113582168608 C 0.0 **** -0.24
19562 H 85.4303055889356 46.6203498849851 107.14267314610306 H 0.0 **** 0.06
19563 H 84.05847667915548 47.24122085864474 108.0922265588041 H 0.0 **** 0.06
19564 H 84.81964892374178 48.2670224652386 106.85206370039857 H 0.0 **** 0.06
19565 H 85.69307469180202 47.89464730681976 108.3578828048411 H 0.0 **** 0.06
19566 C 22.78500230171082 89.95867009580107 41.6633930001357 C 0.0 **** -0.24
19567 H 23.439876951156034 90.20256324125796 40.826765126002385 H 0.0 **** 0.06
19568 H 23.339117545556675 89.37561424091996 42.39910152802021 H 0.0 **** 0.06
19569 H 21.93700542196634 89.3781189917959 41.30294540372638 H 0.0 **** 0.06
19570 H 22.426498142445066 90.879511931471 42.12402948638601 H 0.0 **** 0.06
19571 C 64.73348685868527 104.0841499533643 102.57554231557829 C 0.0 **** -0.24
19572 H 65.48701137571669 104.87185016093892 102.59093934889395 H 0.0 **** 0.06
19573 H 65.19520560564192 103.13573589246647 102.85410207302138 H 0.0 **** 0.06
19574 H 64.31345429286569 104.00325731361642 101.57258173441234 H 0.0 **** 0.06
19575 H 63.94136710159904 104.3251906660484 103.28348472914807 H 0.0 **** 0.06
19576 C 48.73621116651267 87.67966409182777 86.6584267065723 C 0.0 **** -0.24
19577 H 48.332873540916886 88.3572266988802 87.4113487240796 H 0.0 **** 0.06
19578 H 49.79708460558212 87.88424250391552 86.51854096036763 H 0.0 **** 0.06
19579 H 48.208472520720676 87.82856330734319 85.71608874315721 H 0.0 **** 0.06
19580 H 48.60408085837299 86.64991165206251 86.99035494272076 H 0.0 **** 0.06
19581 C 25.686998273363685 86.37692825322608 5.801238411577117 C 0.0 **** -0.24
19582 H 25.95851764025747 86.48199852376982 6.851184737720132 H 0.0 **** 0.06
19583 H 26.58805944821117 86.4012831211219 5.187952598309323 H 0.0 **** 0.06
19584 H 25.02878125875054 87.19693996295015 5.5120895242250185 H 0.0 **** 0.06
19585 H 25.171219630183913 85.4273047015538 5.6520054969749935 H 0.0 **** 0.06
19586 C 104.28664123203649 83.97675740304668 16.041951659149504 C 0.0 **** -0.24
19587 H 104.41833103384877 83.86631132145381 17.11812604192596 H 0.0 **** 0.06
19588 H 104.81243704633715 84.86825185649086 15.700355032955528 H 0.0 **** 0.06
19589 H 103.2249384166795 84.07071509847114 15.814500718437529 H 0.0 **** 0.06
19590 H 104.69055258934236 83.09956083869564 15.535154131913743 H 0.0 **** 0.06
19591 C 87.65467059701834 106.79371479028447 97.45575535814464 C 0.0 **** -0.24
19592 H 88.62657341336774 106.43961718854095 97.79908560021988 H 0.0 **** 0.06
19593 H 87.30991373134881 106.16871147498287 96.63153241572803 H 0.0 **** 0.06
19594 H 87.74390346235441 107.82562173405898 97.11656159965287 H 0.0 **** 0.06
19595 H 86.93931789707818 106.7418007927503 98.27623100691414 H 0.0 **** 0.06
19596 C 93.26726539894277 46.59661924893905 45.96516360968724 C 0.0 **** -0.24
19597 H 93.3612291909354 45.987323535151994 45.06599153161358 H 0.0 **** 0.06
19598 H 92.72684595857109 47.512666317808055 45.728373791675466 H 0.0 **** 0.06
19599 H 94.26070058003553 46.84622644171037 46.339820422064676 H 0.0 **** 0.06
19600 H 92.72169937896987 46.03856152224759 46.72612954631857 H 0.0 **** 0.06
19601 C 97.51256232224817 68.51293201804828 54.487458627293414 C 0.0 **** -0.24
19602 H 97.04622542879868 67.54021654292049 54.330639061253315 H 0.0 **** 0.06
19603 H 97.61876341313872 69.02215714716635 53.52991806506982 H 0.0 **** 0.06
19604 H 98.49623208061351 68.37505702464694 54.93741663014355 H 0.0 **** 0.06
19605 H 96.8894942807572 69.11151286419704 55.152033719449285 H 0.0 **** 0.06
19606 C 0.5369617079763014 3.671520133359806 65.47963982623007 C 0.0 **** -0.24
19607 H 0.7802132952283154 2.6099526758666896 65.51816301375078 H 0.0 **** 0.06
19608 H 0.3520445383850763 3.965120977693429 64.44610266080122 H 0.0 **** 0.06
19609 H 1.3718667792230423 4.249007059129687 65.8782515453375 H 0.0 **** 0.06
19610 H -0.354401128766618 3.862601338007188 66.07749695647551 H 0.0 **** 0.06
19611 C 1.5246780651823997 54.25070188703846 71.20157182340667 C 0.0 **** -0.24
19612 H 2.1434662487850176 55.14483448638885 71.27554431240475 H 0.0 **** 0.06
19613 H 0.5128937873334394 54.53266601756401 70.90920955416154 H 0.0 **** 0.06
19614 H 1.4968572642669926 53.748580739509606 72.16876272091523 H 0.0 **** 0.06
19615 H 1.9451541176856892 53.57804462945124 70.45454442930321 H 0.0 **** 0.06
19616 C 10.657831437406173 95.43929948310638 31.65379582272317 C 0.0 **** -0.24
19617 H 9.702912272576384 95.75209540377348 32.075971089793825 H 0.0 **** 0.06
19618 H 10.553803133860853 94.44654628817294 31.214743296097936 H 0.0 **** 0.06
19619 H 11.411663182864885 95.4111735675897 32.44079932453678 H 0.0 **** 0.06
19620 H 10.963917844502802 96.14725110542807 30.883468305099996 H 0.0 **** 0.06
19621 C 87.62464783039358 32.27647221299345 28.987822558925927 C 0.0 **** -0.24
19622 H 87.36723206366648 32.62596827711131 29.987139543238868 H 0.0 **** 0.06
19623 H 87.87292697001617 31.21573969557783 29.02566254926211 H 0.0 **** 0.06
19624 H 88.48296089049501 32.83768677872034 28.616487350161776 H 0.0 **** 0.06
19625 H 86.77558578582136 32.42760013391129 28.320672728974642 H 0.0 **** 0.06
19626 C 66.27086797954183 107.91597169874026 60.81918845824029 C 0.0 **** -0.24
19627 H 65.26455336310761 107.63701165676652 61.13275517556025 H 0.0 **** 0.06
19628 H 66.4116558100711 107.65006519069227 59.77192471936111 H 0.0 **** 0.06
19629 H 67.00084824240821 107.38655357297905 61.43036851156211 H 0.0 **** 0.06
19630 H 66.40407231105951 108.99082835928114 60.94213817305011 H 0.0 **** 0.06
19631 C 41.39390145049654 44.63063296372141 8.45043391507447 C 0.0 **** -0.24
19632 H 40.34386913805402 44.34570807897947 8.524318088134237 H 0.0 **** 0.06
19633 H 41.87612415027543 44.496468296207865 9.418502070187003 H 0.0 **** 0.06
19634 H 41.465093595860765 45.67719398394581 8.150136240541158 H 0.0 **** 0.06
19635 H 41.88869974458885 44.00531398659518 7.706764816953637 H 0.0 **** 0.06
19636 C 57.55712431363071 25.079632637889347 41.15035911970932 C 0.0 **** -0.24
19637 H 58.49661821261906 25.00923570451488 40.60208058248196 H 0.0 **** 0.06
19638 H 57.76579345777877 25.185116105741315 42.215393078063755 H 0.0 **** 0.06
19639 H 56.96949016511365 24.177583961290452 40.981471205835646 H 0.0 **** 0.06
19640 H 56.99794023771474 25.947642823166944 40.80218629813072 H 0.0 **** 0.06
19641 C 15.176035148051312 5.987774798927505 66.06074899082415 C 0.0 **** -0.24
19642 H 15.750867081364532 6.651867452751089 66.70553191087703 H 0.0 **** 0.06
19643 H 14.21383870523718 6.445291165590959 65.83279374593536 H 0.0 **** 0.06
19644 H 15.015235804047379 5.037331787039035 66.56991451652601 H 0.0 **** 0.06
19645 H 15.72566075216099 5.815567587009317 65.13563861440394 H 0.0 **** 0.06
19646 C 16.896291317054988 61.19598584298039 54.20067513669332 C 0.0 **** -0.24
19647 H 17.035474566938262 60.30452496154517 53.58877122030515 H 0.0 **** 0.06
19648 H 16.850472291974143 62.07435956997405 53.556793872823675 H 0.0 **** 0.06
19649 H 17.73197558584235 61.295134066179514 54.89283787457114 H 0.0 **** 0.06
19650 H 15.966186552936506 61.10869362693231 54.76369035789574 H 0.0 **** 0.06
19651 C 14.25479239346457 7.862819220859123 42.885655473048814 C 0.0 **** -0.24
19652 H 13.53421666265811 8.38143504396831 42.25447876887995 H 0.0 **** 0.06
19653 H 14.309282608225317 8.356768467199345 43.85598780867127 H 0.0 **** 0.06
19654 H 15.235932970617938 7.885423289295346 42.411207272992556 H 0.0 **** 0.06
19655 H 13.94059478907667 6.8282727833076535 43.021884583887584 H 0.0 **** 0.06
19656 C 78.47678467401815 57.35863916126537 78.04536969101923 C 0.0 **** -0.24
19657 H 79.51625804334361 57.48796829787996 78.34643769137601 H 0.0 **** 0.06
19658 H 78.43509340568836 56.78256254118117 77.1210264512932 H 0.0 **** 0.06
19659 H 78.0208010982246 58.33587283512068 77.88734697907313 H 0.0 **** 0.06
19660 H 77.93499268647727 56.827448598011266 78.82901372703016 H 0.0 **** 0.06
19661 C 23.35760222364391 108.18836754051968 2.0534733076379155 C 0.0 **** -0.24
19662 H 24.33006962114179 108.66429581283825 2.1817399479249104 H 0.0 **** 0.06
19663 H 23.174438130917196 108.0162942893894 0.9928156921904616 H 0.0 **** 0.06
19664 H 22.580125319230547 108.83818815280104 2.45637124250554 H 0.0 **** 0.06
19665 H 23.34738423130983 107.23635158974216 2.583777997034815 H 0.0 **** 0.06
19666 C 66.83530741196043 96.60044938374709 93.37541034245868 C 0.0 **** -0.24
19667 H 65.94988056119149 97.05522038492559 92.93288642384692 H 0.0 **** 0.06
19668 H 66.7142836781434 96.54909540175917 94.45752119395218 H 0.0 **** 0.06
19669 H 67.71185081270977 97.20265251226904 93.1352042843751 H 0.0 **** 0.06
19670 H 66.96562163121865 95.59407989379382 92.9755071096236 H 0.0 **** 0.06
19671 C 26.71379985629292 57.27173572588919 13.301315693661309 C 0.0 **** -0.24
19672 H 25.676241828233554 57.5087305489565 13.06369476061846 H 0.0 **** 0.06
19673 H 27.33452401181715 57.43536273893192 12.419579532753033 H 0.0 **** 0.06
19674 H 26.786786900359218 56.22951720592852 13.608851404426687 H 0.0 **** 0.06
19675 H 27.056660116962256 57.915615305325765 14.11094262549615 H 0.0 **** 0.06
19676 C 99.09528850164367 106.81151477731156 62.67730680262255 C 0.0 **** -0.24
19677 H 100.00912113158125 107.22619308693348 63.102142840581195 H 0.0 **** 0.06
19678 H 98.4024867808331 106.56198055165892 63.479784974024795 H 0.0 **** 0.06
19679 H 99.33490674679143 105.91169035029128 62.11062261643826 H 0.0 **** 0.06
19680 H 98.63707661854272 107.54721322980012 62.01525424357112 H 0.0 **** 0.06
19681 C 29.791163985521386 24.849542374101027 80.58035358448063 C 0.0 **** -0.24
19682 H 29.170161050382184 24.216578480873565 81.21439217729778 H 0.0 **** 0.06
19683 H 29.32774167319915 24.943272177239496 79.5972058600886 H 0.0 **** 0.06
19684 H 30.77950864032971 24.402124494725918 80.47598913738273 H 0.0 **** 0.06
19685 H 29.88415440756433 25.83686425256759 81.03387778917084 H 0.0 **** 0.06
19686 C 74.5739802341875 49.890151902550485 59.101938205159115 C 0.0 **** -0.24
19687 H 73.57682835273536 49.69918203549338 58.70361852853716 H 0.0 **** 0.06
19688 H 74.63501304761132 50.9211741814936 59.44894954804164 H 0.0 **** 0.06
19689 H 75.31466050087772 49.72480133393202 58.31924233955522 H 0.0 **** 0.06
19690 H 74.76761373149458 49.21317712752705 59.93468735308778 H 0.0 **** 0.06
19691 C 9.203661970922298 57.499116010073124 32.875536502406476 C 0.0 **** -0.24
19692 H 9.048946841748746 56.70015841496635 33.60044190056624 H 0.0 **** 0.06
19693 H 9.663351400828164 58.35545400464048 33.36998445743913 H 0.0 **** 0.06
19694 H 8.244301005289538 57.795460779190364 32.45148205487038 H 0.0 **** 0.06
19695 H 9.858861255708755 57.144786066996716 32.0788325895025 H 0.0 **** 0.06
19696 C 34.94316614105685 10.554775139610456 78.18723037692695 C 0.0 **** -0.24
19697 H 33.97875365882496 10.625838858068303 78.69000603918991 H 0.0 **** 0.06
19698 H 35.46798708810374 9.663681220728849 78.5330779066586 H 0.0 **** 0.06
19699 H 35.53853579692992 11.438194770652544 78.4145726656563 H 0.0 **** 0.06
19700 H 34.78722988666232 10.489206387148304 77.11015771631224 H 0.0 **** 0.06
19701 C 99.03620318903931 41.95145710861841 88.64137302541337 C 0.0 **** -0.24
19702 H 98.69687086736631 42.52245597520981 87.7775798241077 H 0.0 **** 0.06
19703 H 98.29298270783 41.19194458853502 88.88827182076938 H 0.0 **** 0.06
19704 H 99.16699473021079 42.621809828435104 89.49114869679232 H 0.0 **** 0.06
19705 H 99.98577345825736 41.46960303629291 88.40893849754505 H 0.0 **** 0.06
19706 C 81.88478856500129 82.54248750296517 109.16728842682744 C 0.0 **** -0.24
19707 H 81.53989654005343 81.94428904310666 110.0111207525076 H 0.0 **** 0.06
19708 H 82.95677774080804 82.71839789329567 109.26085467278824 H 0.0 **** 0.06
19709 H 81.35837898843013 83.49730445937053 109.16077409058906 H 0.0 **** 0.06
19710 H 81.68302273546578 82.00968906793537 108.23858708095273 H 0.0 **** 0.06
19711 C 3.646120113022789 12.315009997977896 4.949372023663301 C 0.0 **** -0.24
19712 H 4.069178434314992 13.314626386267971 5.0489742215982005 H 0.0 **** 0.06
19713 H 2.571581659052967 12.357380329994513 5.129396370964287 H 0.0 **** 0.06
19714 H 4.111336268306175 11.649679123768546 5.676308466240869 H 0.0 **** 0.06
19715 H 3.8318756071325453 11.94051730274602 3.943058977470997 H 0.0 **** 0.06
19716 C 24.635605248546934 74.99679769483659 52.115305297544595 C 0.0 **** -0.24
19717 H 23.895062275686133 75.65238284436084 51.655195344049204 H 0.0 **** 0.06
19718 H 25.633367383936065 75.40422709434463 51.95133919034862 H 0.0 **** 0.06
19719 H 24.569516097478708 74.00447111167459 51.66788592231152 H 0.0 **** 0.06
19720 H 24.441848286298807 74.92566722071241 53.18542096467656 H 0.0 **** 0.06
19721 C 22.757417271128276 100.5835811678653 100.52358967837822 C 0.0 **** -0.24
19722 H 22.354550595218683 99.73345928523088 99.97271391399158 H 0.0 **** 0.06
19723 H 22.146195207135833 101.46600345541712 100.32841163171923 H 0.0 **** 0.06
19724 H 23.78148416736309 100.77291657494405 100.20194553541816 H 0.0 **** 0.06
19725 H 22.747097920965757 100.36271834402211 101.59075272525854 H 0.0 **** 0.06
19726 C 72.70467983722075 40.32269511477227 82.29725594017361 C 0.0 **** -0.24
19727 H 71.66212094321352 40.04059865948523 82.44440011628723 H 0.0 **** 0.06
19728 H 72.76667109626507 41.10582990616135 81.54132679739351 H 0.0 **** 0.06
19729 H 73.27283059072347 39.45280152058962 81.96592864254251 H 0.0 **** 0.06
19730 H 73.11821298507151 40.69074187174226 83.23631919353753 H 0.0 **** 0.06
19731 C 83.76650380735875 27.446402452021175 105.90819167407433 C 0.0 **** -0.24
19732 H 82.88758400526635 28.017906511001854 106.20462362277786 H 0.0 **** 0.06
19733 H 84.03566972651339 26.753219034439667 106.70511909745076 H 0.0 **** 0.06
19734 H 84.59766490275564 28.12794018796393 105.72328499168177 H 0.0 **** 0.06
19735 H 83.54635115114314 26.886958154644077 104.99861881696498 H 0.0 **** 0.06
19736 C 100.96446414911424 59.636339775529294 19.01808384700392 C 0.0 **** -0.24
19737 H 99.94069888114895 59.676965571671445 18.646833179818774 H 0.0 **** 0.06
19738 H 101.43875053631155 60.6088196519854 18.881646189180017 H 0.0 **** 0.06
19739 H 101.52134812898255 58.87967406010936 18.465669982587183 H 0.0 **** 0.06
19740 H 100.95735493242124 59.38141234306242 20.077395548455243 H 0.0 **** 0.06
19741 C 81.15433311609738 70.09938995286034 10.313418308723215 C 0.0 **** -0.24
19742 H 80.60842994278462 70.72963663959295 11.01433386950987 H 0.0 **** 0.06
19743 H 80.55903912361435 69.21734555734791 10.078517088835667 H 0.0 **** 0.06
19744 H 82.09906440875116 69.79117947749837 10.76255637996826 H 0.0 **** 0.06
19745 H 81.35257344232755 70.65935754091073 9.399954080654993 H 0.0 **** 0.06
19746 C 69.35202012949507 86.67136657228627 50.73172990129473 C 0.0 **** -0.24
19747 H 68.88050659925194 87.61135517529647 50.4461633624565 H 0.0 **** 0.06
19748 H 69.05988393868856 85.88976222959826 50.03064863349044 H 0.0 **** 0.06
19749 H 69.03279149671276 86.39581517442775 51.73722252064158 H 0.0 **** 0.06
19750 H 70.43570222082157 86.78935194330074 50.71480465826829 H 0.0 **** 0.06
19751 C 64.55110851225646 50.45726254301142 81.10928066963947 C 0.0 **** -0.24
19752 H 65.40355734835254 50.89638869320968 81.62748436132804 H 0.0 **** 0.06
19753 H 64.68130313968993 49.37717538805382 81.04788913404684 H 0.0 **** 0.06
19754 H 64.48327942020757 50.873593324359206 80.10420964828123 H 0.0 **** 0.06
19755 H 63.63722081239291 50.68336277345288 81.65926599264091 H 0.0 **** 0.06
19756 C 28.621181099845046 97.44665454754238 11.506406128100423 C 0.0 **** -0.24
19757 H 28.91693687283967 98.47318827266781 11.721045029811819 H 0.0 **** 0.06
19758 H 28.052267542297614 97.41976325176404 10.57658725997851 H 0.0 **** 0.06
19759 H 28.004140609263658 97.06874549844383 12.322022876783421 H 0.0 **** 0.06
19760 H 29.510638660297104 96.82581270031915 11.406779660407267 H 0.0 **** 0.06
19761 C 24.277978888545647 105.43165717511016 45.86273367390038 C 0.0 **** -0.24
19762 H 24.822039103341112 104.49557575490365 45.73934044189639 H 0.0 **** 0.06
19763 H 24.372364290175412 106.02887572732415 44.95528323069567 H 0.0 **** 0.06
19764 H 24.691570153196736 105.98402485764157 46.706264973334726 H 0.0 **** 0.06
19765 H 23.225172873012184 105.21792292535146 46.04888162245095 H 0.0 **** 0.06
19766 C 77.19345322607496 91.00645959677635 52.13456639688417 C 0.0 **** -0.24
19767 H 76.20581800530216 91.18999117716251 51.71132922971066 H 0.0 **** 0.06
19768 H 77.87221084666724 91.80623369676537 51.83511616754271 H 0.0 **** 0.06
19769 H 77.57322514010865 90.05189161321287 51.7699815184219 H 0.0 **** 0.06
19770 H 77.12288483137881 90.97836869771743 53.22252822165365 H 0.0 **** 0.06
19771 C 101.54084768620976 34.948856312876586 58.540377120014284 C 0.0 **** -0.24
19772 H 102.13421087782382 34.17292957913887 58.05581264362792 H 0.0 **** 0.06
19773 H 101.84937185482909 35.04447772804028 59.581638503209376 H 0.0 **** 0.06
19774 H 100.48573029136696 34.67804786614306 58.49690354991873 H 0.0 **** 0.06
19775 H 101.69481255509538 35.897395704753265 58.02547059718887 H 0.0 **** 0.06
19776 C 37.16855553140769 87.91757253102165 12.892717675435335 C 0.0 **** -0.24
19777 H 37.91671875208357 88.5391892423493 12.400531391962033 H 0.0 **** 0.06
19778 H 36.27202067320245 87.86984815433257 12.273697844188519 H 0.0 **** 0.06
19779 H 36.918415416626715 88.34883665827118 13.861942123920471 H 0.0 **** 0.06
19780 H 37.566400264657915 86.9136587550725 13.034803822881315 H 0.0 **** 0.06
19781 C 24.261280517363673 77.95951717344985 18.686068942165548 C 0.0 **** -0.24
19782 H 23.805134804840634 77.79156683347861 19.661987824492144 H 0.0 **** 0.06
19783 H 24.016845431429687 77.12931623770777 18.023739162821073 H 0.0 **** 0.06
19784 H 25.343490053946198 78.02759141852817 18.79978926223083 H 0.0 **** 0.06
19785 H 23.881399192340808 78.8880219631821 18.261670755907687 H 0.0 **** 0.06
19786 C 60.028872058310256 65.9248231708957 88.28188659806376 C 0.0 **** -0.24
19787 H 59.92104240968084 66.92917350457398 88.69273947829261 H 0.0 **** 0.06
19788 H 59.377741297103995 65.81521013567072 87.41494625907863 H 0.0 **** 0.06
19789 H 59.7539795251256 65.19184389608894 89.0400919273016 H 0.0 **** 0.06
19790 H 61.065088885661865 65.76578356939993 87.9820099602149 H 0.0 **** 0.06
19791 C 85.234399055734 97.42305057675964 65.38443469772741 C 0.0 **** -0.24
19792 H 86.18823057882594 97.25645751997831 64.88382302670678 H 0.0 **** 0.06
19793 H 84.47777224943633 96.76798555630685 64.95217832123569 H 0.0 **** 0.06
19794 H 84.9335443467765 98.46230580449651 65.25402053894919 H 0.0 **** 0.06
19795 H 85.34035431733986 97.20586715092222 66.44699936518555 H 0.0 **** 0.06
19796 C 96.26194536375903 84.07145231040015 38.46818438172437 C 0.0 **** -0.24
19797 H 97.04005751348217 83.81108791678555 37.75106396020588 H 0.0 **** 0.06
19798 H 95.41779411567398 84.51683632851723 37.94202604514882 H 0.0 **** 0.06
19799 H 96.65821766600249 84.78618065626009 39.189561207578876 H 0.0 **** 0.06
19800 H 95.93238367605204 83.17328808140407 38.99028874407668 H 0.0 **** 0.06
19801 C 35.01782449809042 28.61342921656597 2.306666888058828 C 0.0 **** -0.24
19802 H 35.13834735318494 29.671848617005388 2.0712150200185135 H 0.0 **** 0.06
19803 H 35.50512013511211 28.012834793576786 1.538489061811859 H 0.0 **** 0.06
19804 H 33.95676262450931 28.368716585542302 2.3415987534285847 H 0.0 **** 0.06
19805 H 35.47121496598187 28.404048406795745 3.275598583208165 H 0.0 **** 0.06
19806 C 2.1011573953805396 61.40541642696134 85.30397946189734 C 0.0 **** -0.24
19807 H 1.937624521457849 60.35047510534237 85.52470481922614 H 0.0 **** 0.06
19808 H 1.7929731444678936 61.6124491665838 84.27881225090533 H 0.0 **** 0.06
19809 H 3.158551057944493 61.64093589799373 85.420401259838 H 0.0 **** 0.06
19810 H 1.514120054820168 62.015549463862556 85.98975030886265 H 0.0 **** 0.06
19811 C 54.63626427208641 58.931681288175206 1.9490760984116662 C 0.0 **** -0.24
19812 H 54.7537923102783 59.25306754897882 2.984211799648591 H 0.0 **** 0.06
19813 H 55.60327122051456 58.96437357110693 1.44654981108485 H 0.0 **** 0.06
19814 H 53.938949492531265 59.59533214095127 1.4394483687459854 H 0.0 **** 0.06
19815 H 54.249766522606194 57.912920674956645 1.9276483914280504 H 0.0 **** 0.06
19816 C 30.87254857290239 42.381238526783676 75.59718020781246 C 0.0 **** -0.24
19817 H 30.877431513521543 43.429787249599656 75.89372963418133 H 0.0 **** 0.06
19818 H 31.816098046673943 42.13824893339384 75.10712880273009 H 0.0 **** 0.06
19819 H 30.04840577089726 42.204186510960824 74.90639943881979 H 0.0 **** 0.06
19820 H 30.748894180596906 41.75424427942778 76.47964415689147 H 0.0 **** 0.06
19821 C 43.79364923725759 42.12755325752198 26.622289364990877 C 0.0 **** -0.24
19822 H 42.81374070466712 42.1379434223324 27.09828108322543 H 0.0 **** 0.06
19823 H 44.54188078203068 41.78529583542223 27.337921481487967 H 0.0 **** 0.06
19824 H 44.045645736018606 43.13436745064183 26.28686741151074 H 0.0 **** 0.06
19825 H 43.77462662540594 41.45314782020432 25.766245379904433 H 0.0 **** 0.06
19826 C 8.468770911824294 78.62345587541506 106.53493775749493 C 0.0 **** -0.24
19827 H 8.78652681116182 78.97005910484336 107.51862382771552 H 0.0 **** 0.06
19828 H 7.57768708805186 78.00420281537868 106.63834537183298 H 0.0 **** 0.06
19829 H 9.267864776838408 78.03843751405253 106.08061482089444 H 0.0 **** 0.06
19830 H 8.242904300742182 79.48249610900609 105.90249483012065 H 0.0 **** 0.06
19831 C 103.497083944427 96.71527726744237 96.05882444806343 C 0.0 **** -0.24
19832 H 104.24838161312107 97.36774555156491 96.50380851305506 H 0.0 **** 0.06
19833 H 103.92225469334815 95.72385326605885 95.90615456746282 H 0.0 **** 0.06
19834 H 103.1801995047031 97.12779466495411 95.10045627289342 H 0.0 **** 0.06
19835 H 102.63812178208352 96.6446292627733 96.72523098096306 H 0.0 **** 0.06
19836 C 97.91323452320285 20.075741952203856 70.05918065495797 C 0.0 **** -0.24
19837 H 98.47754632401347 19.707891033230027 69.20224030900508 H 0.0 **** 0.06
19838 H 96.97349566371895 20.509269996000626 69.71574038452304 H 0.0 **** 0.06
19839 H 98.49631444577452 20.837009306218448 70.57786620984993 H 0.0 **** 0.06
19840 H 97.70637319004089 19.25024571118618 70.73974598883386 H 0.0 **** 0.06
19841 C 64.38061546138385 48.67179098257253 0.40998511861005227 C 0.0 **** -0.24
19842 H 63.57773464954096 48.12148337612015 -0.08156228679740707 H 0.0 **** 0.06
19843 H 65.18274212271837 48.85888122830704 -0.3040694531445922 H 0.0 **** 0.06
19844 H 64.76435397264527 48.08552733934067 1.2442132044445202 H 0.0 **** 0.06
19845 H 63.99475628658769 49.62189277431145 0.7798258394486766 H 0.0 **** 0.06
19846 C 70.58829690274581 7.957234982448995 50.244558595115 C 0.0 **** -0.24
19847 H 71.60252891767277 7.992913872937777 49.8472548265561 H 0.0 **** 0.06
19848 H 69.87572192596207 8.101952894622002 49.432863785130856 H 0.0 **** 0.06
19849 H 70.46107020889303 8.746079479011428 50.98555155305835 H 0.0 **** 0.06
19850 H 70.41608655490344 6.987726579059711 50.71254143707796 H 0.0 **** 0.06
19851 C 101.26926194042974 66.44908597994996 107.91555510289604 C 0.0 **** -0.24
19852 H 101.39646680108817 65.39390754069464 107.67571932864968 H 0.0 **** 0.06
19853 H 100.24564638436401 66.7516316429809 107.69244027134619 H 0.0 **** 0.06
19854 H 101.96227362553284 67.04326438285148 107.31933389615091 H 0.0 **** 0.06
19855 H 101.47266095073377 66.60754035327278 108.97472691543709 H 0.0 **** 0.06
19856 C 90.32691420918826 82.64619385916744 63.85055205325308 C 0.0 **** -0.24
19857 H 90.3575250995898 83.55976763424793 63.256667551303295 H 0.0 **** 0.06
19858 H 89.67013244464117 81.92118371269076 63.36952203450875 H 0.0 **** 0.06
19859 H 89.94972660053354 82.87443128450614 64.84743823079968 H 0.0 **** 0.06
19860 H 91.33205374177443 82.23047336139616 63.929393112681865 H 0.0 **** 0.06
19861 C 4.75789790554721 22.334196483022197 57.21283967349424 C 0.0 **** -0.24
19862 H 5.025009722025871 21.660041605523986 56.39883023931288 H 0.0 **** 0.06
19863 H 4.092730334068829 23.111514122505042 56.8358697994392 H 0.0 **** 0.06
19864 H 5.6609231225740295 22.79129863184957 57.615710467775614 H 0.0 **** 0.06
19865 H 4.25231301009862 21.772288948560742 57.99851436839925 H 0.0 **** 0.06
19866 C 56.74776827308153 38.687184054330544 58.38468757032609 C 0.0 **** -0.24
19867 H 56.047037664986384 38.9311703574964 57.58619701688826 H 0.0 **** 0.06
19868 H 57.76740478484129 38.84849048669753 58.03413442877189 H 0.0 **** 0.06
19869 H 56.62180083556511 37.64243615220306 58.67076438463573 H 0.0 **** 0.06
19870 H 56.553047753542124 39.32612144644992 59.24605554745199 H 0.0 **** 0.06
19871 C 109.10663546017122 18.36098182976849 91.01151932368012 C 0.0 **** -0.24
19872 H 108.17510208262674 18.752547842930596 91.41856897797449 H 0.0 **** 0.06
19873 H 109.04903487421865 17.27313337272085 90.95337407508407 H 0.0 **** 0.06
19874 H 109.93550062543837 18.647359147696818 91.65997171448377 H 0.0 **** 0.06
19875 H 109.26724795387538 18.769661603096154 90.01354569377465 H 0.0 **** 0.06
19876 C 41.25489027264602 56.02144038440329 1.0385142497630113 C 0.0 **** -0.24
19877 H 42.23037796831887 56.35277767173315 1.3958268118744144 H 0.0 **** 0.06
19878 H 41.207868468491746 54.933040703663494 1.0680765269382277 H 0.0 **** 0.06
19879 H 41.10782213659786 56.364464860046894 0.014732045275621886 H 0.0 **** 0.06
19880 H 40.474835161599 56.43763748872789 1.6770139922039249 H 0.0 **** 0.06
19881 C 79.38257058851167 14.132817791822944 11.792228626511903 C 0.0 **** -0.24
19882 H 80.3642226580865 13.705344185883249 11.588186010457175 H 0.0 **** 0.06
19883 H 79.00854682522481 14.630433242013709 10.897062726835152 H 0.0 **** 0.06
19884 H 79.46320099746652 14.856025688513625 12.603644013286523 H 0.0 **** 0.06
19885 H 78.69386268150151 13.338311439467745 12.080700412883978 H 0.0 **** 0.06
19886 C 83.65361138234624 22.385179623885957 84.11827472421734 C 0.0 **** -0.24
19887 H 84.46364929422546 23.05552593344005 83.83009545150327 H 0.0 **** 0.06
19888 H 83.22226660434512 21.932649311275256 83.224924343717 H 0.0 **** 0.06
19889 H 82.88583990519572 22.950976779806027 84.6462987916021 H 0.0 **** 0.06
19890 H 84.04329340971734 21.603668984201573 84.77067790308064 H 0.0 **** 0.06
19891 C 103.47283139528525 54.84634899931498 39.889184486398165 C 0.0 **** -0.24
19892 H 102.93893051005116 54.47773405780194 39.01385729926602 H 0.0 **** 0.06
19893 H 103.4443170383873 54.09195135478052 40.675909359829234 H 0.0 **** 0.06
19894 H 102.99945397528843 55.761562622007744 40.245084359261455 H 0.0 **** 0.06
19895 H 104.50920439600428 55.05333993093484 39.62198861982449 H 0.0 **** 0.06
19896 C 7.074144284623969 97.96138938903186 58.60339235519382 C 0.0 **** -0.24
19897 H 6.935900101068569 97.60478589872376 57.58230156616037 H 0.0 **** 0.06
19898 H 7.594418557179949 98.91922410088416 58.58516524976625 H 0.0 **** 0.06
19899 H 7.664085029183639 97.2368921093569 59.16481062502015 H 0.0 **** 0.06
19900 H 6.1012046392431785 98.08415163686155 59.079340614519765 H 0.0 **** 0.06
19901 C 99.72276433896434 102.17050539550682 0.1919827071542386 C 0.0 **** -0.24
19902 H 99.07682136421293 101.51308839263153 -0.38903395989649425 H 0.0 **** 0.06
19903 H 100.41733445621371 102.68053972413715 -0.4758093407977526 H 0.0 **** 0.06
19904 H 100.2823858085007 101.58182421042983 0.9186436455748321 H 0.0 **** 0.06
19905 H 99.11334019623679 102.90863201131188 0.7147333606384336 H 0.0 **** 0.06
19906 C 76.46926592081644 71.38315835219754 38.77586808755436 C 0.0 **** -0.24
19907 H 75.630318997367 71.99631954541537 39.10590188087832 H 0.0 **** 0.06
19908 H 76.41035723530223 71.23851686812377 37.6969443231994 H 0.0 **** 0.06
19909 H 76.43050378704106 70.41553272303389 39.27567902965458 H 0.0 **** 0.06
19910 H 77.40519387748219 71.88438640656919 39.02480224172581 H 0.0 **** 0.06
19911 C 63.125358645699805 85.76688030236 103.39589866153068 C 0.0 **** -0.24
19912 H 63.51504879542364 84.77602219582938 103.63004964317831 H 0.0 **** 0.06
19913 H 63.172820382043255 86.39444255145754 104.28631649124024 H 0.0 **** 0.06
19914 H 62.09048533748086 85.68066873076367 103.06587195796504 H 0.0 **** 0.06
19915 H 63.72355379294157 86.21444011244051 102.60276462413746 H 0.0 **** 0.06
19916 C 4.967881205558058 76.96411805707162 2.822645384749052 C 0.0 **** -0.24
19917 H 4.880943087476339 75.90899538817592 2.5634702004672647 H 0.0 **** 0.06
19918 H 5.741380824685905 77.42544999850188 2.2096861852953964 H 0.0 **** 0.06
19919 H 5.233243026987736 77.05797169472778 3.8760966202016505 H 0.0 **** 0.06
19920 H 4.014459000012664 77.46181346027402 2.6432595264836323 H 0.0 **** 0.06
19921 C 67.42243585366974 46.207538824096765 81.02614961411183 C 0.0 **** -0.24
19922 H 67.91730092422837 45.42188349310376 80.45632590115959 H 0.0 **** 0.06
19923 H 67.1711053471531 47.034590947611704 80.36174412775647 H 0.0 **** 0.06
19924 H 68.0901448332737 46.561624047026775 81.81125292695417 H 0.0 **** 0.06
19925 H 66.51119231002384 45.812056808644854 81.47527550057701 H 0.0 **** 0.06
19926 C 25.48826390598049 62.333888403184915 10.655683103901538 C 0.0 **** -0.24
19927 H 26.243397022593413 61.58613291300615 10.414219763107155 H 0.0 **** 0.06
19928 H 24.497085528599783 61.89206181463567 10.561330169829148 H 0.0 **** 0.06
19929 H 25.57825466334924 63.176017204497 9.968718284358317 H 0.0 **** 0.06
19930 H 25.636500276461447 62.68208176797961 11.677632318520295 H 0.0 **** 0.06
19931 C 43.029166516084814 81.71896240587441 71.34544391310092 C 0.0 **** -0.24
19932 H 43.09577162599527 81.09702660235271 72.23768179653302 H 0.0 **** 0.06
19933 H 42.264753491413614 81.31841959679818 70.6792194204366 H 0.0 **** 0.06
19934 H 43.991869141253915 81.72394389838098 70.83326059084466 H 0.0 **** 0.06
19935 H 42.764515873170154 82.73705485453323 71.63084829609205 H 0.0 **** 0.06
19936 C 76.81277292083813 47.64965427305623 108.61469569397904 C 0.0 **** -0.24
19937 H 76.55023314219032 48.69063284215346 108.42819821651626 H 0.0 **** 0.06
19938 H 77.08470445948169 47.169830310494376 107.67322599851121 H 0.0 **** 0.06
19939 H 75.95869112106406 47.13263274552526 109.05328996400064 H 0.0 **** 0.06
19940 H 77.65743639150816 47.605019611904254 109.3024109304341 H 0.0 **** 0.06
19941 C 35.134380468019856 51.05010657307617 76.51768819786491 C 0.0 **** -0.24
19942 H 34.46958220231534 51.913508050691 76.54614911775377 H 0.0 **** 0.06
19943 H 34.77750413173686 50.29391366801336 77.21818196823494 H 0.0 **** 0.06
19944 H 36.14176400639303 51.35840689054437 76.7972041707713 H 0.0 **** 0.06
19945 H 35.14764832559766 50.635460359655376 75.50967463160862 H 0.0 **** 0.06
19946 C 90.93355207070233 19.565036392653685 14.820369528723859 C 0.0 **** -0.24
19947 H 90.71454981197358 18.75950627900559 15.521154161796517 H 0.0 **** 0.06
19948 H 90.5758331666186 19.28876747536691 13.827958027823968 H 0.0 **** 0.06
19949 H 92.00929442591752 19.73444633528916 14.786245204662322 H 0.0 **** 0.06
19950 H 90.43181783043 20.476224589516452 15.146565329353564 H 0.0 **** 0.06
19951 C 75.08747500812922 16.489645705117454 57.86671328468009 C 0.0 **** -0.24
19952 H 75.21900741494318 16.976488080411798 58.8330008129081 H 0.0 **** 0.06
19953 H 75.52648935359127 15.49256631606903 57.899984218780276 H 0.0 **** 0.06
19954 H 75.58001731796145 17.078678879780682 57.093306641091885 H 0.0 **** 0.06
19955 H 74.02405781044274 16.411346695357054 57.64136472014883 H 0.0 **** 0.06
19956 C 10.757823061131546 40.03830892944917 31.42018510356243 C 0.0 **** -0.24
19957 H 10.988709480352782 39.023737229699066 31.747057648366265 H 0.0 **** 0.06
19958 H 11.573976074211998 40.41512803453179 30.80292540584378 H 0.0 **** 0.06
19959 H 10.63403854903504 40.68160873711075 32.292079407654285 H 0.0 **** 0.06
19960 H 9.835711666555426 40.03163356616406 30.84023354673772 H 0.0 **** 0.06
19961 C 8.616463677605054 36.533388578612175 5.92312214571893 C 0.0 **** -0.24
19962 H 8.022243107802808 37.412710157149746 6.170799994540941 H 0.0 **** 0.06
19963 H 7.957811274667449 35.73088917048793 5.592642913401001 H 0.0 **** 0.06
19964 H 9.170458796572973 36.21033175046739 6.804046953951483 H 0.0 **** 0.06
19965 H 9.315836388408627 36.78201188680512 5.124775645276147 H 0.0 **** 0.06
19966 C 25.83456302099544 44.254121808956256 105.57349370675618 C 0.0 **** -0.24
19967 H 25.60310496637782 45.0426832153708 104.85604054341329 H 0.0 **** 0.06
19968 H 26.37519448508018 44.68004146748319 106.41851318007153 H 0.0 **** 0.06
19969 H 26.450157050257456 43.49428815182921 105.09170466175064 H 0.0 **** 0.06
19970 H 24.907669039666008 43.80119005719337 105.92516007042934 H 0.0 **** 0.06
19971 C 105.31955221459347 102.64256265743627 45.81550777949553 C 0.0 **** -0.24
19972 H 105.94730750326748 102.13981027547415 46.551130099086265 H 0.0 **** 0.06
19973 H 104.31783881279398 102.21413605202238 45.83973052029842 H 0.0 **** 0.06
19974 H 105.74828182865699 102.51113666944636 44.82161239715424 H 0.0 **** 0.06
19975 H 105.26600523008078 103.7053174815467 46.05024962437892 H 0.0 **** 0.06
19976 C 79.6846540999478 83.516377517553 86.27767060588138 C 0.0 **** -0.24
19977 H 80.0895688659989 84.52799754918931 86.2704062028493 H 0.0 **** 0.06
19978 H 79.88138519894807 83.03991296043546 85.31665899230995 H 0.0 **** 0.06
19979 H 78.60921584266697 83.55647275761083 86.44959725177449 H 0.0 **** 0.06
19980 H 80.1581243243711 82.94101457569283 87.07264749269945 H 0.0 **** 0.06
19981 C 3.2327623114072708 4.373964868792939 50.31043130111022 C 0.0 **** -0.24
19982 H 3.9784272035632853 3.7561820793204106 49.809815514151104 H 0.0 **** 0.06
19983 H 2.30880748155397 3.8068947707023995 50.42298276032185 H 0.0 **** 0.06
19984 H 3.0415433549505906 5.267133390521565 49.71485325277032 H 0.0 **** 0.06
19985 H 3.6033534672549195 4.665717870918456 51.29316587888398 H 0.0 **** 0.06
19986 C 7.202455171820191 40.56113965399535 101.48635053006092 C 0.0 **** -0.24
19987 H 6.113006860589337 40.588446601637884 101.49538116610762 H 0.0 **** 0.06
19988 H 7.538142723353275 39.63259218301623 101.02375311990869 H 0.0 **** 0.06
19989 H 7.575472071867978 40.61492638347282 102.50856830868088 H 0.0 **** 0.06
19990 H 7.58171317029047 41.409345420915415 100.91590312627329 H 0.0 **** 0.06
19991 C 46.7359300104345 77.89540757814359 31.79368823891746 C 0.0 **** -0.24
19992 H 46.17479499148845 77.18237950047882 31.189434708323063 H 0.0 **** 0.06
19993 H 46.388423049556465 77.84725789646518 32.826317624541346 H 0.0 **** 0.06
19994 H 46.58259792322974 78.90153364569443 31.4050657905118 H 0.0 **** 0.06
19995 H 47.79704208839048 77.64779026345181 31.755705121602027 H 0.0 **** 0.06
19996 C 70.8194353401197 3.719470872651355 54.13582416493191 C 0.0 **** -0.24
19997 H 70.31003456417398 3.93870874836127 55.07411860653221 H 0.0 **** 0.06
19998 H 70.89868436038603 4.6321568092353775 53.544490182006605 H 0.0 **** 0.06
19999 H 70.25030196415435 2.9740566645103197 53.58006096165622 H 0.0 **** 0.06
20000 H 71.81663862798365 3.3341423702608033 54.34514769968102 H 0.0 **** 0.06
20001 C 99.15689264152932 35.005157386289 101.6441777228594 C 0.0 **** -0.24
20002 H 98.68731790046262 34.05332106666367 101.39492469447408 H 0.0 **** 0.06
20003 H 99.47543272238536 35.50304569395206 100.72902349971434 H 0.0 **** 0.06
20004 H 100.02356142662588 34.825874216442855 102.28090031044397 H 0.0 **** 0.06
20005 H 98.44193560446982 35.635592085198994 102.17271190513497 H 0.0 **** 0.06
20006 C 84.98429193999199 82.44093699865272 58.37791251076467 C 0.0 **** -0.24
20007 H 83.9011804747146 82.51850787057435 58.47711543844931 H 0.0 **** 0.06
20008 H 85.39626701109695 83.4160918101444 58.11665681705032 H 0.0 **** 0.06
20009 H 85.22604420967616 81.72141786977318 57.59457668937413 H 0.0 **** 0.06
20010 H 85.41266748298176 82.10674208379191 59.32322359775148 H 0.0 **** 0.06
20011 C 59.92244552393862 94.83916888401845 97.5673191600709 C 0.0 **** -0.24
20012 H 60.93575291015367 94.96964669525735 97.18842140428012 H 0.0 **** 0.06
20013 H 59.34611825024501 95.74522919458911 97.38211004643802 H 0.0 **** 0.06
20014 H 59.95788163502709 94.64215107116331 98.6386156219379 H 0.0 **** 0.06
20015 H 59.450619004737234 93.99871593766386 97.0592449573835 H 0.0 **** 0.06
20016 C 43.55623434949707 60.81749344981185 22.796726518786954 C 0.0 **** -0.24
20017 H 44.58254723146429 60.47564323709608 22.93745411707991 H 0.0 **** 0.06
20018 H 43.29870816104943 60.76679617951311 21.738483188831225 H 0.0 **** 0.06
20019 H 43.46519538031475 61.8459675641912 23.14528603687063 H 0.0 **** 0.06
20020 H 42.8805296529383 60.17971831161128 23.367235006645927 H 0.0 **** 0.06
20021 C 78.72438128103889 64.0766638393583 91.11261867195698 C 0.0 **** -0.24
20022 H 79.74818315485874 63.72521590882744 91.2388047019343 H 0.0 **** 0.06
20023 H 78.35137659468944 63.76597752794267 90.13664869965959 H 0.0 **** 0.06
20024 H 78.70290794659309 65.16394651896213 91.1816048970849 H 0.0 **** 0.06
20025 H 78.0951755053631 63.650889723462484 91.8953123803589 H 0.0 **** 0.06
20026 C 80.39432334425237 9.471151943451929 28.922210270638708 C 0.0 **** -0.24
20027 H 80.6928384464137 10.152864933665171 29.71884821511899 H 0.0 **** 0.06
20028 H 81.09645596523421 8.638914507428865 28.873852351905462 H 0.0 **** 0.06
20029 H 80.39398688961279 10.003847226376962 27.97108383282449 H 0.0 **** 0.06
20030 H 79.39292311865108 9.091665167147283 29.125837986694137 H 0.0 **** 0.06
20031 C 63.585158709701034 57.753544646614046 23.368824953156263 C 0.0 **** -0.24
20032 H 63.85794448806291 57.3113625399331 22.410595977996195 H 0.0 **** 0.06
20033 H 63.022413482108504 58.67144550649485 23.19791942384134 H 0.0 **** 0.06
20034 H 64.48851145770482 57.979906731270376 23.93503946361264 H 0.0 **** 0.06
20035 H 62.97050678023703 57.05008525371383 23.930158841235084 H 0.0 **** 0.06
20036 C 43.118836970923596 41.48941461828957 89.11594430514297 C 0.0 **** -0.24
20037 H 43.96762099600733 41.086206987260596 89.66655946431555 H 0.0 **** 0.06
20038 H 43.46402830129652 41.90343977580582 88.16812732979737 H 0.0 **** 0.06
20039 H 42.64336711994443 42.27535710790258 89.70407844397995 H 0.0 **** 0.06
20040 H 42.39931423604676 40.693628373564025 88.9248811745365 H 0.0 **** 0.06
20041 C 102.3183603793071 98.85417182089537 2.079928872122892 C 0.0 **** -0.24
20042 H 102.21652265558195 97.79325609994396 1.8489855216144973 H 0.0 **** 0.06
20043 H 103.2955373189113 99.20508821777108 1.7486891457548097 H 0.0 **** 0.06
20044 H 102.22462565652228 99.00200900034064 3.1556322780222965 H 0.0 **** 0.06
20045 H 101.53698035903778 99.41405619574594 1.5672812824993034 H 0.0 **** 0.06
20046 C 13.12644653751861 85.01717279138143 85.93318119049974 C 0.0 **** -0.24
20047 H 12.753738403679577 84.4203834189961 86.7670445300149 H 0.0 **** 0.06
20048 H 14.043032380931283 85.52525948411625 86.23249900867154 H 0.0 **** 0.06
20049 H 12.375752192307424 85.75517886232387 85.65211561526432 H 0.0 **** 0.06
20050 H 13.331843941064808 84.365748520474 85.08430420222149 H 0.0 **** 0.06
20051 C 56.516615596490105 28.95757782810233 31.814015626490246 C 0.0 **** -0.24
20052 H 55.67489890325122 28.87745166166883 31.126356806130495 H 0.0 **** 0.06
20053 H 57.27491960114442 28.220308195471404 31.54782123236913 H 0.0 **** 0.06
20054 H 56.17271468208396 28.773549306852317 32.831801224625316 H 0.0 **** 0.06
20055 H 56.94369623852408 29.95770816323389 31.749562252785942 H 0.0 **** 0.06
20056 C 3.801599360259047 60.5712643416843 106.43276174847958 C 0.0 **** -0.24
20057 H 4.278467295030566 61.257155505438305 107.13373122168696 H 0.0 **** 0.06
20058 H 4.102140592310775 60.82509860018658 105.41580056770401 H 0.0 **** 0.06
20059 H 2.7189042394207377 60.655071030417474 106.52269249840198 H 0.0 **** 0.06
20060 H 4.107502614059115 59.54966824165689 106.65788940539034 H 0.0 **** 0.06
20061 C 24.631254086263453 62.326586919237684 5.517181156671867 C 0.0 **** -0.24
20062 H 24.5704730086197 62.46662467303619 4.438013448760117 H 0.0 **** 0.06
20063 H 24.048909079022877 61.45091078787749 5.803340998254839 H 0.0 **** 0.06
20064 H 24.23208061838008 63.207956023613946 6.020433551295213 H 0.0 **** 0.06
20065 H 25.671958548341905 62.18240922472222 5.807146447596267 H 0.0 **** 0.06
20066 C 95.11449139923087 91.12689164987472 16.496021700461313 C 0.0 **** -0.24
20067 H 96.1348359469873 91.22881082874304 16.86446478355964 H 0.0 **** 0.06
20068 H 94.41627320573538 91.23115456921798 17.326839663542728 H 0.0 **** 0.06
20069 H 94.98996541981505 90.14585454029711 16.03664889315658 H 0.0 **** 0.06
20070 H 94.91595434572598 91.90213632088995 15.75514812025483 H 0.0 **** 0.06
20071 C 101.15931023738355 59.60930100676164 79.99508258060791 C 0.0 **** -0.24
20072 H 100.89365571622739 60.65379016787996 79.83139708355642 H 0.0 **** 0.06
20073 H 100.66955352643366 59.247899392670845 80.89970522902985 H 0.0 **** 0.06
20074 H 102.23981185384311 59.522984741198115 80.10712093098834 H 0.0 **** 0.06
20075 H 100.83361832470216 59.01380779258179 79.14203774790224 H 0.0 **** 0.06
20076 C 18.95992108905091 45.82373902704877 50.98646575598838 C 0.0 **** -0.24
20077 H 17.94472437481494 45.427312684708255 50.996743839563436 H 0.0 **** 0.06
20078 H 19.380598557646664 45.71783134787989 49.98610435419738 H 0.0 **** 0.06
20079 H 19.572102132595262 45.27279017651941 51.69914135114416 H 0.0 **** 0.06
20080 H 18.940699599410834 46.87832545495296 51.262941625237204 H 0.0 **** 0.06
20081 C 103.78105684678957 65.21652193507225 48.746266252208784 C 0.0 **** -0.24
20082 H 103.50572285659513 64.30644385242113 48.21370083879475 H 0.0 **** 0.06
20083 H 104.18502398071092 64.95649729716399 49.72491870764611 H 0.0 **** 0.06
20084 H 102.89979509437117 65.84541340515966 48.872781497978906 H 0.0 **** 0.06
20085 H 104.53532732500933 65.75778300690041 48.174213446829185 H 0.0 **** 0.06
20086 C 33.18222471032607 3.578681231306035 15.96518558893544 C 0.0 **** -0.24
20087 H 32.227970039115746 3.5377330698277376 16.48972357612513 H 0.0 **** 0.06
20088 H 33.78918973643317 4.384932641063585 16.377194071194424 H 0.0 **** 0.06
20089 H 33.006414163342214 3.761495590038564 14.904889192754808 H 0.0 **** 0.06
20090 H 33.70602428687988 2.629913035418582 16.088639466635982 H 0.0 **** 0.06
20091 C 91.45029375359363 35.685469794534114 96.20264964050926 C 0.0 **** -0.24
20092 H 91.13818871747266 35.32728887501684 97.18332782700816 H 0.0 **** 0.06
20093 H 90.58447728175108 35.7344624235947 95.54226988266822 H 0.0 **** 0.06
20094 H 92.18911944045244 35.00224865932281 95.7847437798165 H 0.0 **** 0.06
20095 H 91.88829905942373 36.67880857532059 96.30197384953408 H 0.0 **** 0.06
20096 C 103.9627857802677 7.36890192724502 3.5447526485355585 C 0.0 **** -0.24
20097 H 104.57520681296421 8.055152207545646 2.959797181626171 H 0.0 **** 0.06
20098 H 104.3236009445274 7.346987017428333 4.573010890113249 H 0.0 **** 0.06
20099 H 104.02507234277287 6.36978432529817 3.1145326809970255 H 0.0 **** 0.06
20100 H 102.92603206080919 7.706760247158883 3.530247497765556 H 0.0 **** 0.06
20101 C 63.26364610604102 2.4446428880017663 13.193396057717138 C 0.0 **** -0.24
20102 H 63.475523595411815 1.4569316706319455 13.603784145536224 H 0.0 **** 0.06
20103 H 64.12917159264914 3.091722775891384 13.339533556565812 H 0.0 **** 0.06
20104 H 62.39971682202449 2.8713933192057937 13.702515989285246 H 0.0 **** 0.06
20105 H 63.051183816577606 2.3562939527398896 12.127678396175668 H 0.0 **** 0.06
20106 C 53.44335147990796 45.24187498810315 71.63161316135766 C 0.0 **** -0.24
20107 H 52.630057353472125 45.66131013626651 71.03965398355744 H 0.0 **** 0.06
20108 H 53.41306702766991 44.15373859247853 71.56975094664168 H 0.0 **** 0.06
20109 H 53.33222378680301 45.549672362206735 72.6707374149865 H 0.0 **** 0.06
20110 H 54.396987580751386 45.601855335056996 71.24626634296149 H 0.0 **** 0.06
20111 C 11.150379505028582 95.89427406702606 17.452321070608534 C 0.0 **** -0.24
20112 H 10.936020431745106 96.29615274063788 16.46179767006585 H 0.0 **** 0.06
20113 H 10.766790390632679 96.57739261290318 18.21129168427622 H 0.0 **** 0.06
20114 H 12.228545963531104 95.78534963378989 17.573467521660675 H 0.0 **** 0.06
20115 H 10.67118372045502 94.92161372197533 17.56158265293699 H 0.0 **** 0.06
20116 C 38.05095576149884 83.11291709108625 3.018426840474027 C 0.0 **** -0.24
20117 H 38.66288739206182 84.01287125938194 3.0671605141220333 H 0.0 **** 0.06
20118 H 38.696809454911204 82.23725932071319 2.9572360184639166 H 0.0 **** 0.06
20119 H 37.41098638917527 83.15595535955113 2.1371557296575583 H 0.0 **** 0.06
20120 H 37.431561478731425 83.04603560139704 3.9136729104119006 H 0.0 **** 0.06
20121 C 28.02563374157001 53.5956642375759 65.21917763811523 C 0.0 **** -0.24
20122 H 28.25347393726517 52.529451328163816 65.22084231380805 H 0.0 **** 0.06
20123 H 27.087438771008525 53.76710102751525 65.74783398766976 H 0.0 **** 0.06
20124 H 27.9330656167473 53.94651883036238 64.19121310856649 H 0.0 **** 0.06
20125 H 28.828347023455727 54.139017316888555 65.71844381816948 H 0.0 **** 0.06
20126 C 85.7742199580374 75.66562767635772 99.98199287242552 C 0.0 **** -0.24
20127 H 85.5646898445492 75.23348500859233 99.00300474307936 H 0.0 **** 0.06
20128 H 85.0489534890904 75.29258735004582 100.70585292719731 H 0.0 **** 0.06
20129 H 85.7038745002879 76.75135935565521 99.92193403355367 H 0.0 **** 0.06
20130 H 86.7786062869323 75.3827224926491 100.29521095099119 H 0.0 **** 0.06
20131 C 11.233773927070175 36.902470810719784 33.69885159269188 C 0.0 **** -0.24
20132 H 12.057530738555215 36.82141238749971 32.988774010318764 H 0.0 **** 0.06
20133 H 11.625336698801831 36.87446578576458 34.715394334592304 H 0.0 **** 0.06
20134 H 10.544003210016129 36.07153150022041 33.550983124759114 H 0.0 **** 0.06
20135 H 10.707717669074327 37.843699263139726 33.53738423500127 H 0.0 **** 0.06
20136 C 12.364375207589234 60.53837341342728 4.347051095075642 C 0.0 **** -0.24
20137 H 11.533064898895333 59.832770889902804 4.349532055910288 H 0.0 **** 0.06
20138 H 12.248958839329575 61.23915330782853 5.173989709319315 H 0.0 **** 0.06
20139 H 12.372091193082369 61.085617725610405 3.404183123854949 H 0.0 **** 0.06
20140 H 13.302778407016774 59.99461891785978 4.459137594586338 H 0.0 **** 0.06
20141 C 47.882113842491066 6.181209882094535 48.63143686392317 C 0.0 **** -0.24
20142 H 48.102374543839744 6.89851604739755 47.84172939811452 H 0.0 **** 0.06
20143 H 46.80770280507954 5.997131132575944 48.665829677305055 H 0.0 **** 0.06
20144 H 48.21274116893295 6.583140643677822 49.58916391131271 H 0.0 **** 0.06
20145 H 48.40475652612582 5.246683317397668 48.430375853521184 H 0.0 **** 0.06
20146 C 71.45919774616195 12.360733025200346 88.65831847324174 C 0.0 **** -0.24
20147 H 72.43031611799879 11.94215934195256 88.3945438905255 H 0.0 **** 0.06
20148 H 71.28441602597405 12.229465908863972 89.7269349797456 H 0.0 **** 0.06
20149 H 70.67807522750223 11.849511720594506 88.09580781312633 H 0.0 **** 0.06
20150 H 71.44444687099829 13.423740232315339 88.41594068018016 H 0.0 **** 0.06
20151 C 4.959857937091913 37.47102446888559 13.080425733305162 C 0.0 **** -0.24
20152 H 4.400786345298792 36.570532303989694 12.826469690783199 H 0.0 **** 0.06
20153 H 4.31385799512204 38.155261353128566 13.631421988842646 H 0.0 **** 0.06
20154 H 5.306175092860615 37.95379568460393 12.16678673115075 H 0.0 **** 0.06
20155 H 5.816859510844443 37.20377313373925 13.698202279525788 H 0.0 **** 0.06
20156 C 1.2581561368977248 59.96048561504182 81.31160175317513 C 0.0 **** -0.24
20157 H 1.2991094771632277 59.035936114349624 80.73614898894391 H 0.0 **** 0.06
20158 H 0.9196573216360093 60.772842696500334 80.66923554928015 H 0.0 **** 0.06
20159 H 2.250516433657282 60.19143210521514 81.69945049326756 H 0.0 **** 0.06
20160 H 0.5623219791397673 59.83948232895159 82.14295124975013 H 0.0 **** 0.06
20161 C 4.228241082029911 98.75366040266518 69.12428058100721 C 0.0 **** -0.24
20162 H 4.603152976250925 97.94329909639515 69.75043435459074 H 0.0 **** 0.06
20163 H 4.721581541778164 99.68506438722432 69.403081043138 H 0.0 **** 0.06
20164 H 3.152695641087419 98.85438607766916 69.26691706260223 H 0.0 **** 0.06
20165 H 4.437830262022345 98.53003535218217 68.07782173288464 H 0.0 **** 0.06
20166 C 43.83254902304452 41.32690883918312 42.486066584747505 C 0.0 **** -0.24
20167 H 44.56658503929111 40.58826027132247 42.810301614546006 H 0.0 **** 0.06
20168 H 43.39768975247944 41.01428173453081 41.536937746901856 H 0.0 **** 0.06
20169 H 44.321852432591015 42.293759688382124 42.36223385885717 H 0.0 **** 0.06
20170 H 43.04664065802558 41.411632097342334 43.23660897309179 H 0.0 **** 0.06
20171 C 98.96197758963275 0.11288074061242526 52.106339655854796 C 0.0 **** -0.24
20172 H 98.7287453543295 -0.0988528629043941 51.062040583537566 H 0.0 **** 0.06
20173 H 98.05179724928423 0.04317106454391251 52.7025126194569 H 0.0 **** 0.06
20174 H 99.37628078589553 1.1177425879549787 52.18922753614056 H 0.0 **** 0.06
20175 H 99.69100525633225 -0.6119156138758797 52.469554193586845 H 0.0 **** 0.06
20176 C 99.34242124670077 63.6363282180301 18.240600604250318 C 0.0 **** -0.24
20177 H 99.9308245773022 63.75630165172049 17.331859895463026 H 0.0 **** 0.06
20178 H 98.63507410197455 64.46209614200431 18.32696781250226 H 0.0 **** 0.06
20179 H 100.00586588336083 63.634671927529254 19.104999989216623 H 0.0 **** 0.06
20180 H 98.79771596879839 62.693640460805184 18.198651022049006 H 0.0 **** 0.06
20181 C 108.75139443810308 0.23185245592849846 38.027708394928155 C 0.0 **** -0.24
20182 H 108.45172124840745 -0.8157947725669779 38.050927302973435 H 0.0 **** 0.06
20183 H 108.3294100733015 0.7108051497359131 37.144137583204994 H 0.0 **** 0.06
20184 H 109.83864811141646 0.29710403268649355 37.9926438769555 H 0.0 **** 0.06
20185 H 108.38596505436684 0.7330889543687578 38.923447281560826 H 0.0 **** 0.06
20186 C 97.09192504231821 1.380311309586034 44.88778125379997 C 0.0 **** -0.24
20187 H 97.73978148855853 1.0879171643434233 45.71311298536017 H 0.0 **** 0.06
20188 H 96.06955013352881 1.0641173201761092 45.09930870577563 H 0.0 **** 0.06
20189 H 97.43682450283629 0.9061865345412627 43.96951502514469 H 0.0 **** 0.06
20190 H 97.11976770088407 2.4638165735473194 44.769654106605685 H 0.0 **** 0.06
20191 C 77.65095861749654 23.193647663901885 4.145723737755363 C 0.0 **** -0.24
20192 H 76.65726148438608 23.580722186495734 4.371405348471994 H 0.0 **** 0.06
20193 H 78.4000016786656 23.938010951324145 4.414962718711244 H 0.0 **** 0.06
20194 H 77.72215461001684 22.975949482291924 3.0795893441075997 H 0.0 **** 0.06
20195 H 77.82316501450418 22.280735372004642 4.715001279749201 H 0.0 **** 0.06
20196 C 95.9428651619077 84.61402109140532 92.03131059497184 C 0.0 **** -0.24
20197 H 96.88430640133468 84.95884714101723 91.6056967260692 H 0.0 **** 0.06
20198 H 95.12002933383538 84.90499164641514 91.37755433313194 H 0.0 **** 0.06
20199 H 95.80247246426349 85.06281355079545 93.01465137072046 H 0.0 **** 0.06
20200 H 95.9634074992069 83.52786722689099 92.12729872394902 H 0.0 **** 0.06
20201 C 100.64267024927265 102.01666120231658 101.35947406150262 C 0.0 **** -0.24
20202 H 101.32613172703469 102.8468777409916 101.53261759795879 H 0.0 **** 0.06
20203 H 100.8162451131309 101.6049374506436 100.364389508182 H 0.0 **** 0.06
20204 H 99.613917944101 102.37165315042824 101.43168449818529 H 0.0 **** 0.06
20205 H 100.81328007577193 101.24251013784112 102.10805025239 H 0.0 **** 0.06
20206 C 46.91559525068209 73.21577095150528 10.156038475276716 C 0.0 **** -0.24
20207 H 47.27637104618407 74.18084380998465 10.509676696265103 H 0.0 **** 0.06
20208 H 46.86569001695739 72.51778723484189 10.992885627100122 H 0.0 **** 0.06
20209 H 47.59723810379029 72.82782766561003 9.399057700250069 H 0.0 **** 0.06
20210 H 45.92290192758958 73.33535616773443 9.723131835885567 H 0.0 **** 0.06
20211 C 105.50245188781236 100.22141419605491 56.97774344556197 C 0.0 **** -0.24
20212 H 105.62516390504663 99.21257792758695 56.58389703040719 H 0.0 **** 0.06
20213 H 104.48811819706697 100.34220540784962 57.3590904650395 H 0.0 **** 0.06
20214 H 105.6797603581175 100.94574897840052 56.18212183773983 H 0.0 **** 0.06
20215 H 106.21679692469104 100.3857309427106 57.78506995080494 H 0.0 **** 0.06
20216 C 23.381592824477607 66.98047774319365 92.6991823061205 C 0.0 **** -0.24
20217 H 22.465465784518223 67.15944501601443 92.13645517938079 H 0.0 **** 0.06
20218 H 24.010981612338757 67.87075519030154 92.65934772776005 H 0.0 **** 0.06
20219 H 23.915897960578892 66.13691357076284 92.26356055534991 H 0.0 **** 0.06
20220 H 23.132789003895294 66.75770463471571 93.7363571335882 H 0.0 **** 0.06
20221 C 59.86404252659338 42.670800042585626 29.14188487465114 C 0.0 **** -0.24
20222 H 60.6338298256228 42.742461964676 28.373503493260614 H 0.0 **** 0.06
20223 H 59.29610836057816 43.600942637895685 29.174356890438872 H 0.0 **** 0.06
20224 H 60.333099975514415 42.49817632503925 30.110221073850397 H 0.0 **** 0.06
20225 H 59.19437305195794 41.84353084889541 28.908560426536013 H 0.0 **** 0.06
20226 C 36.53620996683142 2.490142383169058 74.54641515957962 C 0.0 **** -0.24
20227 H 36.390905250935816 3.4980941688600495 74.93524623972186 H 0.0 **** 0.06
20228 H 35.61393252726762 1.9211475221751897 74.65960963585687 H 0.0 **** 0.06
20229 H 37.33729118209288 2.0001124709324074 75.09943632979315 H 0.0 **** 0.06
20230 H 36.80353409616498 2.544091445316596 73.49159426565487 H 0.0 **** 0.06
20231 C 48.521744147746276 79.07497085269395 90.49820288492971 C 0.0 **** -0.24
20232 H 49.46383795910751 79.54806035420921 90.2218074798291 H 0.0 **** 0.06
20233 H 48.49702934550054 78.91897144910023 91.5771001324635 H 0.0 **** 0.06
20234 H 48.43619979058903 78.11386449250273 89.9903233377855 H 0.0 **** 0.06
20235 H 47.69240143927765 79.71733857182896 90.20385071756502 H 0.0 **** 0.06
20236 C 46.09788719142094 5.883314229400142 41.534678006960704 C 0.0 **** -0.24
20237 H 46.69648490377149 6.788283757535837 41.428565720388114 H 0.0 **** 0.06
20238 H 45.17083533098638 5.992495972623999 40.97227064941875 H 0.0 **** 0.06
20239 H 45.86776346027898 5.722774255555549 42.58806438474397 H 0.0 **** 0.06
20240 H 46.657843358360466 5.030267588730553 41.15147912621051 H 0.0 **** 0.06
20241 C 100.25014564904939 33.396068818910635 49.13148231455427 C 0.0 **** -0.24
20242 H 99.53065567596599 33.6160521864785 48.34328289750753 H 0.0 **** 0.06
20243 H 100.94098886800779 34.232435970713084 49.23711133084696 H 0.0 **** 0.06
20244 H 100.80566262475133 32.49435646786253 48.87545195294138 H 0.0 **** 0.06
20245 H 99.72029330470464 33.24125498788777 50.07233624803383 H 0.0 **** 0.06
20246 C 27.955656090351198 55.679344709571225 36.75082527429451 C 0.0 **** -0.24
20247 H 28.125984211287346 55.42343239727226 37.79593436728041 H 0.0 **** 0.06
20248 H 28.774846103310722 56.30239445793365 36.391841154077454 H 0.0 **** 0.06
20249 H 27.0163131987359 56.22345820324614 36.65781317595565 H 0.0 **** 0.06
20250 H 27.906631773530734 54.76679083596912 36.15672350853586 H 0.0 **** 0.06
20251 C 105.0516151979017 71.07637699915547 45.69058479435676 C 0.0 **** -0.24
20252 H 104.43856538172463 71.17812831017787 44.7951796075462 H 0.0 **** 0.06
20253 H 104.81437738481958 70.13614698095367 46.18852314786675 H 0.0 **** 0.06
20254 H 104.84781800210743 71.90697526552016 46.36605875083823 H 0.0 **** 0.06
20255 H 106.10570714899882 71.08331495170489 45.41224343378187 H 0.0 **** 0.06
20256 C 18.91292274955012 46.43392396065303 72.14073119695747 C 0.0 **** -0.24
20257 H 18.121778212041818 47.181343580905036 72.20419077991136 H 0.0 **** 0.06
20258 H 18.468338224930505 45.44412724304243 72.03224169441476 H 0.0 **** 0.06
20259 H 19.515428538850358 46.46479332330358 73.04784676640698 H 0.0 **** 0.06
20260 H 19.54423400807471 46.645425751268306 71.27711438307892 H 0.0 **** 0.06
20261 C 67.12712280092022 3.6114195653373145 47.189501308812815 C 0.0 **** -0.24
20262 H 68.08460176238668 4.116324199989066 47.063159749901665 H 0.0 **** 0.06
20263 H 67.06342648795587 2.7737760569072236 46.49340928750629 H 0.0 **** 0.06
20264 H 66.31751657125407 4.312721552150265 46.98872253862969 H 0.0 **** 0.06
20265 H 67.04331492805206 3.2415520919155227 48.210935158276534 H 0.0 **** 0.06
20266 C 37.839788005937464 11.8353861464538 30.340658649883153 C 0.0 **** -0.24
20267 H 38.04547855396848 12.475905030875708 31.198602032109306 H 0.0 **** 0.06
20268 H 37.8721801203078 12.429724362658874 29.428006111737318 H 0.0 **** 0.06
20269 H 36.85034915097674 11.389725120831258 30.450298702987652 H 0.0 **** 0.06
20270 H 38.59015171636037 11.045782513624602 30.287929836508454 H 0.0 **** 0.06
20271 C 32.57531057584032 33.27072259329239 31.993381810742576 C 0.0 **** -0.24
20272 H 33.57731193445602 33.55732637481452 31.672571179822988 H 0.0 **** 0.06
20273 H 32.23983736269986 32.41246929495054 31.411644038549476 H 0.0 **** 0.06
20274 H 31.892449721937908 34.10622167490462 31.836629639761632 H 0.0 **** 0.06
20275 H 32.59346110610028 33.0091086912376 33.05103986210681 H 0.0 **** 0.06
20276 C 94.4939611969412 81.33445630016173 66.53582027425398 C 0.0 **** -0.24
20277 H 93.89676537701166 80.4233970854036 66.57781003088022 H 0.0 **** 0.06
20278 H 93.94373752063746 82.15057658255998 67.00357814850308 H 0.0 **** 0.06
20279 H 94.69990787859732 81.58472637212058 65.49518070521417 H 0.0 **** 0.06
20280 H 95.43345701539283 81.17728285059115 67.0650696912611 H 0.0 **** 0.06
20281 C 13.871602498670946 35.81066766048363 13.217620177520473 C 0.0 **** -0.24
20282 H 14.362265481878001 36.73751338458075 13.516800329583475 H 0.0 **** 0.06
20283 H 13.290271641458435 35.42098773996446 14.053270737021066 H 0.0 **** 0.06
20284 H 14.625051805144352 35.079227648721 12.926734503107923 H 0.0 **** 0.06
20285 H 13.20966688345861 36.00597513632019 12.37414102685932 H 0.0 **** 0.06
20286 C 33.44864601696107 22.73812403638675 21.42711412483885 C 0.0 **** -0.24
20287 H 34.205073420276236 22.78688497454064 20.643983991727623 H 0.0 **** 0.06
20288 H 33.49036828432757 21.763200229374235 21.91320743495868 H 0.0 **** 0.06
20289 H 32.46079289925454 22.88391817744781 20.988062604553647 H 0.0 **** 0.06
20290 H 33.637549874514626 23.519981974146646 22.162824236698725 H 0.0 **** 0.06
20291 C 48.68293893985293 42.187797023807434 85.93930369666327 C 0.0 **** -0.24
20292 H 48.560664456960865 42.92476471829502 85.14511639741056 H 0.0 **** 0.06
20293 H 49.263349258360336 42.623993471572874 86.75313933873372 H 0.0 **** 0.06
20294 H 49.20406804085269 41.31444745919035 85.54686150668942 H 0.0 **** 0.06
20295 H 47.70228207781986 41.889649899892646 86.31156614053623 H 0.0 **** 0.06
20296 C 97.97319166244745 83.80756484124954 10.609113472340368 C 0.0 **** -0.24
20297 H 98.34533525977591 84.81242112464118 10.408621896584577 H 0.0 **** 0.06
20298 H 98.52607993568716 83.08824450466011 10.005022692272178 H 0.0 **** 0.06
20299 H 96.91420461470722 83.75564961868682 10.360155628661516 H 0.0 **** 0.06
20300 H 98.10970776230377 83.57499757480902 11.665170136688971 H 0.0 **** 0.06
20301 C 45.77824083120811 83.57763987998634 27.22305290392626 C 0.0 **** -0.24
20302 H 45.85740800903929 84.42803619274918 26.54531212325321 H 0.0 **** 0.06
20303 H 45.269582012236356 82.75708746473757 26.717294276088182 H 0.0 **** 0.06
20304 H 45.21028544130726 83.86948938894899 28.106577898241426 H 0.0 **** 0.06
20305 H 46.776255226616684 83.25803098288266 27.521872668553556 H 0.0 **** 0.06
20306 C 77.26432445934418 5.3687656530111525 93.62287865032198 C 0.0 **** -0.24
20307 H 77.70545032878537 4.4605195171613055 94.03208975793257 H 0.0 **** 0.06
20308 H 76.41423560934291 5.668169860208536 94.23665546350435 H 0.0 **** 0.06
20309 H 76.92995081122504 5.182359648785599 92.60322094460929 H 0.0 **** 0.06
20310 H 78.0090079565074 6.16486129302732 93.62111929030328 H 0.0 **** 0.06
20311 C 75.69005758765518 29.706792200607936 49.47407771365863 C 0.0 **** -0.24
20312 H 75.65517894325086 28.63569299038255 49.6720317568622 H 0.0 **** 0.06
20313 H 74.71983519866787 30.150448596978748 49.70020254704792 H 0.0 **** 0.06
20314 H 75.93096402624867 29.874809123289936 48.42400899930249 H 0.0 **** 0.06
20315 H 76.45531164716807 30.167150039352123 50.09997211906398 H 0.0 **** 0.06
20316 C 69.15086947155761 81.85444216595299 16.91809971881389 C 0.0 **** -0.24
20317 H 68.84706168572941 82.65649561358286 17.591719063583355 H 0.0 **** 0.06
20318 H 68.63865314868588 81.96849472287074 15.962475137494778 H 0.0 **** 0.06
20319 H 68.88897413130812 80.89264753849363 17.35898267877519 H 0.0 **** 0.06
20320 H 70.22856875374622 81.90098817637525 16.761506007340287 H 0.0 **** 0.06
20321 C 107.6096234794079 82.06720186561475 104.91788408642836 C 0.0 **** -0.24
20322 H 108.3546478061686 81.2931983251971 104.73318394313065 H 0.0 **** 0.06
20323 H 107.53683593968537 82.71716594215837 104.04599330841518 H 0.0 **** 0.06
20324 H 107.90499025489294 82.65593887656566 105.78684674681207 H 0.0 **** 0.06
20325 H 106.6418248879445 81.60235449885029 105.10722689289665 H 0.0 **** 0.06
20326 C 71.58095654901923 45.72450284713492 38.782700160258855 C 0.0 **** -0.24
20327 H 72.26424935257054 46.12262748625834 39.533550100296054 H 0.0 **** 0.06
20328 H 70.75272763070897 45.21681467489088 39.27899698375978 H 0.0 **** 0.06
20329 H 72.11245007314493 45.01645241715376 38.14726561544407 H 0.0 **** 0.06
20330 H 71.19438229516477 46.54149742389772 38.17374773739701 H 0.0 **** 0.06
20331 C 61.98650075949298 93.87612381248633 73.07742817643665 C 0.0 **** -0.24
20332 H 61.76615487175562 93.25630965017254 73.9460828354777 H 0.0 **** 0.06
20333 H 62.92047236062088 93.54626991320839 72.6231614209323 H 0.0 **** 0.06
20334 H 62.081228722975425 94.91646321431338 73.38840148621348 H 0.0 **** 0.06
20335 H 61.17772749328883 93.78619488922993 72.35258927660021 H 0.0 **** 0.06
20336 C 11.426289825541126 77.87555072751604 19.21238005572377 C 0.0 **** -0.24
20337 H 10.647698945843882 77.82752072187736 18.451458775512236 H 0.0 **** 0.06
20338 H 12.387664882077868 77.62211986557566 18.765866170829895 H 0.0 **** 0.06
20339 H 11.19768698166786 77.16923552250114 20.009572857148953 H 0.0 **** 0.06
20340 H 11.470248207353759 78.88487771414668 19.62298889153601 H 0.0 **** 0.06
20341 C 78.62828109170124 48.08596020221252 81.52394219686789 C 0.0 **** -0.24
20342 H 78.80337790924187 47.465962860667005 80.64552703689917 H 0.0 **** 0.06
20343 H 78.13332612673206 47.494112742069916 82.29424931508905 H 0.0 **** 0.06
20344 H 77.9957384726565 48.93150108169994 81.25150986154843 H 0.0 **** 0.06
20345 H 79.58147086586123 48.45378507209175 81.90422893310974 H 0.0 **** 0.06
20346 C 58.65013675813296 104.32000124375344 79.97546192274582 C 0.0 **** -0.24
20347 H 59.39862892837692 104.37240599929424 79.18466163925605 H 0.0 **** 0.06
20348 H 57.66971685634263 104.1344036068727 79.53574128149704 H 0.0 **** 0.06
20349 H 58.63171118714965 105.26498115271016 80.52038158693715 H 0.0 **** 0.06
20350 H 58.9012497038741 103.51049914387383 80.66061335587317 H 0.0 **** 0.06
20351 C 102.5655748654767 64.54763254309614 38.190803516725595 C 0.0 **** -0.24
20352 H 102.19923887065292 65.5589290734367 38.367478731881306 H 0.0 **** 0.06
20353 H 103.53160041958446 64.59477097674599 37.686858555545 H 0.0 **** 0.06
20354 H 101.85513669942314 64.00820708298653 37.56553991079292 H 0.0 **** 0.06
20355 H 102.67729916448185 64.03036726425745 39.14341369218363 H 0.0 **** 0.06
20356 C 97.26241408128541 35.09622811674461 62.8601670089364 C 0.0 **** -0.24
20357 H 97.72218067737198 34.40345375455573 62.15486759977456 H 0.0 **** 0.06
20358 H 97.51813218221406 36.119218935250245 62.582970448674246 H 0.0 **** 0.06
20359 H 97.6320253966796 34.88950000452121 63.864807667928204 H 0.0 **** 0.06
20360 H 96.17953308075192 34.97244201429754 62.83794944904358 H 0.0 **** 0.06
20361 C 42.055600334611555 46.55286729238151 12.468077278436198 C 0.0 **** -0.24
20362 H 42.32156726500691 45.71988586399101 13.119874379755544 H 0.0 **** 0.06
20363 H 42.20333326095434 46.260718452113906 11.428147508179691 H 0.0 **** 0.06
20364 H 42.688002731463776 47.40999777403374 12.69881175006131 H 0.0 **** 0.06
20365 H 41.01069731588094 46.818252991495 12.627127421647145 H 0.0 **** 0.06
20366 C 33.9392165566783 15.453063905463814 68.63860054753616 C 0.0 **** -0.24
20367 H 34.7432398012659 15.690033185917994 69.33521380787798 H 0.0 **** 0.06
20368 H 33.77922951131774 16.29783161026773 67.96787215002314 H 0.0 **** 0.06
20369 H 33.02369709359729 15.252743720213548 69.19530406413622 H 0.0 **** 0.06
20370 H 34.21080977157513 14.572974563994379 68.05648741929366 H 0.0 **** 0.06
20371 C 97.624848489492 11.359037716422108 109.21482485971106 C 0.0 **** -0.24
20372 H 97.30510287984788 10.806872462957983 108.33150549200812 H 0.0 **** 0.06
20373 H 97.07942546763694 12.300952687388843 109.27219882640183 H 0.0 **** 0.06
20374 H 98.69407154891513 11.561793201650943 109.14742185681258 H 0.0 **** 0.06
20375 H 97.42284820823274 10.766436658122132 110.10729488960027 H 0.0 **** 0.06
20376 C 104.17270673240728 17.18697017214231 58.69228743084028 C 0.0 **** -0.24
20377 H 104.73363695368056 17.95305411639214 58.15775539399735 H 0.0 **** 0.06
20378 H 104.2112044731486 16.251866626034513 58.13274816585124 H 0.0 **** 0.06
20379 H 103.13484898070357 17.503694455284318 58.79842371122328 H 0.0 **** 0.06
20380 H 104.60976474497721 17.038387451600244 59.679633026098315 H 0.0 **** 0.06
20381 C 89.50895681266084 89.49571429562677 51.09969274298619 C 0.0 **** -0.24
20382 H 88.97957735669826 88.9363158630977 50.32817497663232 H 0.0 **** 0.06
20383 H 90.29611753227232 90.09371594788514 50.638803423033885 H 0.0 **** 0.06
20384 H 89.9506951956053 88.80127028618121 51.813916484051404 H 0.0 **** 0.06
20385 H 88.80842412150315 90.1527639061685 51.61629092556833 H 0.0 **** 0.06
20386 C 60.9584364788474 28.174506757446693 3.826039539638046 C 0.0 **** -0.24
20387 H 61.97867739371196 28.544751813444122 3.9311679524319203 H 0.0 **** 0.06
20388 H 60.26239570576965 29.01281983226113 3.8561774972059766 H 0.0 **** 0.06
20389 H 60.73646744458205 27.48683184378615 4.642408237078996 H 0.0 **** 0.06
20390 H 60.85844804586033 27.652839669168657 2.8738076014408165 H 0.0 **** 0.06
20391 C 69.89381898123065 73.56652673984382 56.325593628921325 C 0.0 **** -0.24
20392 H 70.69198935846457 74.2434891278661 56.62989418762328 H 0.0 **** 0.06
20393 H 70.30435606015983 72.78784736729642 55.682523943196486 H 0.0 **** 0.06
20394 H 69.13293795193297 74.12459767483153 55.78009042371366 H 0.0 **** 0.06
20395 H 69.44730748235077 73.11153389770521 57.20921900929241 H 0.0 **** 0.06
20396 C 55.098199596161294 71.77657083655131 41.199323541535136 C 0.0 **** -0.24
20397 H 54.073262950795765 71.46196534333052 41.00133074314974 H 0.0 **** 0.06
20398 H 55.432817684677104 72.44217668155811 40.403284292616775 H 0.0 **** 0.06
20399 H 55.74575295217818 70.90026084646716 41.237720758354214 H 0.0 **** 0.06
20400 H 55.13936190792401 72.30080188323565 42.15383247926695 H 0.0 **** 0.06
20401 C 37.85848726039805 53.930020944953554 39.6027658894763 C 0.0 **** -0.24
20402 H 37.69861197779164 53.58537781212053 38.580524759189444 H 0.0 **** 0.06
20403 H 38.07470864096453 53.075161334628945 40.24441944217921 H 0.0 **** 0.06
20404 H 36.96109603706685 54.43433182993476 39.960193297276135 H 0.0 **** 0.06
20405 H 38.698834730282115 54.62365366275856 39.62448293561508 H 0.0 **** 0.06
20406 C 43.77634220838206 50.830162685582394 47.70059398576717 C 0.0 **** -0.24
20407 H 43.66418978215319 51.125493746987615 48.74330833242942 H 0.0 **** 0.06
20408 H 42.79182698665045 50.741477497652056 47.240204337676175 H 0.0 **** 0.06
20409 H 44.29034464804516 49.87034147299835 47.6465513288324 H 0.0 **** 0.06
20410 H 44.359345676918565 51.58476431286263 47.17034940003083 H 0.0 **** 0.06
20411 C 39.723542504462586 99.53932803048048 22.8333953175337 C 0.0 **** -0.24
20412 H 40.20668867087483 99.19785630869359 21.91845452096129 H 0.0 **** 0.06
20413 H 38.89028179171489 100.19574788570407 22.581287295832 H 0.0 **** 0.06
20414 H 40.44429739159236 100.08409214975222 23.442998712321327 H 0.0 **** 0.06
20415 H 39.352093536811 98.67947105067151 23.391411027104965 H 0.0 **** 0.06
20416 C 17.733367611985756 105.46023850953651 80.98915587027327 C 0.0 **** -0.24
20417 H 17.174594726954112 105.35089219500937 81.91788728547172 H 0.0 **** 0.06
20418 H 17.369002564104377 104.7355842284515 80.25938175130256 H 0.0 **** 0.06
20419 H 18.791598628535013 105.28339903282192 81.17845648254348 H 0.0 **** 0.06
20420 H 17.59719640715454 106.4682389030134 80.59923228675441 H 0.0 **** 0.06
20421 C 46.42610366381322 27.57551462834696 107.38177925127039 C 0.0 **** -0.24
20422 H 47.34240261371815 27.001909809949293 107.23594818890643 H 0.0 **** 0.06
20423 H 45.95025455773484 27.751444291869753 106.41757792695847 H 0.0 **** 0.06
20424 H 46.66678761878984 28.53033992876756 107.84920811557859 H 0.0 **** 0.06
20425 H 45.74727697300253 27.015984306761993 108.02611848916257 H 0.0 **** 0.06
20426 C 90.27294586197178 19.975060039666893 91.01595758901675 C 0.0 **** -0.24
20427 H 90.41237906879172 21.04353109896427 91.1777500403744 H 0.0 **** 0.06
20428 H 89.91886746275873 19.511298317770944 91.93730251699463 H 0.0 **** 0.06
20429 H 91.22273559499325 19.524774481393404 90.72423968715708 H 0.0 **** 0.06
20430 H 89.53958760033379 19.81930737557131 90.22474672564323 H 0.0 **** 0.06
20431 C 54.199305150634075 95.33566365645771 17.264953705090974 C 0.0 **** -0.24
20432 H 54.3652092441765 94.25848137840603 17.314331260790198 H 0.0 **** 0.06
20433 H 53.57824348557497 95.64567110587858 18.105489643493883 H 0.0 **** 0.06
20434 H 53.696438968700335 95.58220508468827 16.32991424961382 H 0.0 **** 0.06
20435 H 55.15743058361488 95.85285664544358 17.310471871931526 H 0.0 **** 0.06
20436 C 80.877770995709 65.85852344093892 88.24219825143226 C 0.0 **** -0.24
20437 H 81.41957459458234 66.64897225107963 87.72083321122311 H 0.0 **** 0.06
20438 H 80.73180691012828 65.01382907738913 87.56818502377863 H 0.0 **** 0.06
20439 H 79.90779683106155 66.23669249727219 88.56632506084192 H 0.0 **** 0.06
20440 H 81.45189245430424 65.5364674278118 89.11110178447672 H 0.0 **** 0.06
20441 C 63.507163480697045 60.322158406601034 39.36155137048734 C 0.0 **** -0.24
20442 H 63.08952715917599 61.30188723362818 39.59400395207709 H 0.0 **** 0.06
20443 H 62.93221033681675 59.55136458651248 39.874937814000354 H 0.0 **** 0.06
20444 H 64.54510096004114 60.28340250798533 39.691920293903294 H 0.0 **** 0.06
20445 H 63.461917779476096 60.15441821024092 38.285547230274254 H 0.0 **** 0.06
20446 C 41.673017120212535 4.002193819917437 65.4383785630576 C 0.0 **** -0.24
20447 H 41.04530675445079 4.0467420094645945 66.32882118221607 H 0.0 **** 0.06
20448 H 41.643394738128165 4.964097394603726 64.92514960632138 H 0.0 **** 0.06
20449 H 41.30265209547963 3.223139980929517 64.77180092803115 H 0.0 **** 0.06
20450 H 42.698941671481236 3.775715741861518 65.72764371502376 H 0.0 **** 0.06
20451 C 4.444064985922466 32.72950058827965 103.3053974397882 C 0.0 **** -0.24
20452 H 5.021975814479134 32.46668795737969 104.19174527580992 H 0.0 **** 0.06
20453 H 3.468756230434437 32.246935611653015 103.3524362457234 H 0.0 **** 0.06
20454 H 4.9744146288385025 32.39356289749509 102.4140103090203 H 0.0 **** 0.06
20455 H 4.31402429975293 33.81064629980216 103.26410333036725 H 0.0 **** 0.06
20456 C 14.333268669453119 0.7047641222133194 62.13706737295895 C 0.0 **** -0.24
20457 H 13.869001732748103 -0.26660957633266236 61.967862778845515 H 0.0 **** 0.06
20458 H 13.803676614501 1.2274493902071981 62.934551733872624 H 0.0 **** 0.06
20459 H 14.286040544365747 1.2950509352255146 61.222488345521555 H 0.0 **** 0.06
20460 H 15.375285219942299 0.5634697806326932 62.42511131415196 H 0.0 **** 0.06
20461 C 50.888333294215414 99.7239672698718 27.559564576439634 C 0.0 **** -0.24
20462 H 51.240816361352586 98.96637930807728 28.259893825956716 H 0.0 **** 0.06
20463 H 51.15925143491427 100.71417672993819 27.929369358211716 H 0.0 **** 0.06
20464 H 49.80430665118769 99.65534097555802 27.465561598395375 H 0.0 **** 0.06
20465 H 51.34839896648674 99.56146757181327 26.584998890662384 H 0.0 **** 0.06
20466 C 58.785777293520695 18.304666869183293 99.4775217986141 C 0.0 **** -0.24
20467 H 59.762140693774555 17.927636169648025 99.7827319717411 H 0.0 **** 0.06
20468 H 58.38456620298784 17.67323643039302 98.68476828923187 H 0.0 **** 0.06
20469 H 58.88961914331213 19.32601974620303 99.11159828010051 H 0.0 **** 0.06
20470 H 58.108461874021316 18.291751171915195 100.3314145719133 H 0.0 **** 0.06
20471 C 36.89708025808276 67.08189333386133 102.77861084262923 C 0.0 **** -0.24
20472 H 36.36760308406281 66.13379149586183 102.68580632719693 H 0.0 **** 0.06
20473 H 36.24801373517404 67.89326551661105 102.44830382851887 H 0.0 **** 0.06
20474 H 37.79430445024521 67.05846410685547 102.15845942161036 H 0.0 **** 0.06
20475 H 37.17820749593723 67.240991594776 103.81925873828214 H 0.0 **** 0.06
20476 C 86.37707538507526 88.09323591307219 28.794602520480225 C 0.0 **** -0.24
20477 H 85.92952369096768 89.02798530300149 29.131537079055533 H 0.0 **** 0.06
20478 H 87.34221809217405 88.2994097298548 28.3310727873897 H 0.0 **** 0.06
20479 H 85.71856780185163 87.61726473744557 28.067482100671214 H 0.0 **** 0.06
20480 H 86.51687189173806 87.42862235276885 29.64752376335727 H 0.0 **** 0.06
20481 C 81.7244404295549 102.20982690198822 7.184778381891164 C 0.0 **** -0.24
20482 H 80.67017584388626 102.48217544598131 7.232666891087206 H 0.0 **** 0.06
20483 H 81.94189327871683 101.76897689316249 6.211185314142767 H 0.0 **** 0.06
20484 H 81.94897231433532 101.48710928603874 7.969026765829057 H 0.0 **** 0.06
20485 H 82.33575772810656 103.10104921831905 7.325198419444348 H 0.0 **** 0.06
20486 C 40.79651436869531 5.278757640250651 62.22245421491121 C 0.0 **** -0.24
20487 H 40.83228699977329 4.234440502706313 62.5333415249666 H 0.0 **** 0.06
20488 H 40.050435172656336 5.397436994085703 61.43664386043062 H 0.0 **** 0.06
20489 H 41.77411881436967 5.5792924293731385 61.84475952271873 H 0.0 **** 0.06
20490 H 40.529766718406535 5.9023769447774015 63.075776266036314 H 0.0 **** 0.06
20491 C 63.754947884545714 18.875630030306183 105.96493655527924 C 0.0 **** -0.24
20492 H 63.132526916379234 19.426805824389305 105.26051465643889 H 0.0 **** 0.06
20493 H 64.71241501325933 18.643059187648987 105.49868837059125 H 0.0 **** 0.06
20494 H 63.25217687012184 17.95087689709254 106.24671266402456 H 0.0 **** 0.06
20495 H 63.921855224096504 19.484461542622796 106.85419357822869 H 0.0 **** 0.06
20496 C 97.44965961168852 45.479893502263906 80.13715631455227 C 0.0 **** -0.24
20497 H 97.40060726078656 44.39834919432195 80.0070844584742 H 0.0 **** 0.06
20498 H 98.06305087909938 45.71261903299461 81.00790821338794 H 0.0 **** 0.06
20499 H 96.44459825178546 45.87411949168029 80.28447010847023 H 0.0 **** 0.06
20500 H 97.8909584562377 45.932403197063536 79.2497358303112 H 0.0 **** 0.06
20501 C 52.65087389364231 43.42122898670192 21.033418436318584 C 0.0 **** -0.24
20502 H 52.455358038586894 44.10507612410436 20.207674233911746 H 0.0 **** 0.06
20503 H 53.5807776452358 42.88338824700406 20.84598240581937 H 0.0 **** 0.06
20504 H 51.82951900776203 42.71016038354685 21.11894287343995 H 0.0 **** 0.06
20505 H 52.739892547007855 43.987614199475786 21.96087267904298 H 0.0 **** 0.06
20506 C 1.897187464787626 69.37805704527524 79.88519603056804 C 0.0 **** -0.24
20507 H 0.8442643998037518 69.19125789574503 80.09959992517287 H 0.0 **** 0.06
20508 H 2.016012322656848 69.60632289644506 78.82634279115598 H 0.0 **** 0.06
20509 H 2.4807075494102655 68.4915835139527 80.13436438322202 H 0.0 **** 0.06
20510 H 2.2454629821848213 70.22130293478668 80.48125003333439 H 0.0 **** 0.06
20511 C 53.35586664118553 38.03508345454571 56.64765398786477 C 0.0 **** -0.24
20512 H 53.527730308667266 38.28462906070848 55.601211599765264 H 0.0 **** 0.06
20513 H 54.17501147415343 37.41420448072725 57.012596426586065 H 0.0 **** 0.06
20514 H 52.41646272409333 37.490606310059746 56.74140239721343 H 0.0 **** 0.06
20515 H 53.30440642453312 38.95224798355537 57.23578749080894 H 0.0 **** 0.06
20516 C 96.66853905384156 32.43946292299225 25.83884298238961 C 0.0 **** -0.24
20517 H 96.24711617568082 31.455892007386026 26.0457218369637 H 0.0 **** 0.06
20518 H 97.64323903900144 32.525510335252704 26.318964465023836 H 0.0 **** 0.06
20519 H 96.00162761641138 33.2090488305404 26.22944841418252 H 0.0 **** 0.06
20520 H 96.78026383639987 32.5677575151724 24.761713006084925 H 0.0 **** 0.06
20521 C 13.366240395490863 51.88698370207436 44.07709104958906 C 0.0 **** -0.24
20522 H 12.474090727670927 51.586238298116456 43.52805915499029 H 0.0 **** 0.06
20523 H 14.13751214616579 52.20042029937349 43.37333806543083 H 0.0 **** 0.06
20524 H 13.7313529499326 51.043887154151946 44.66486734291033 H 0.0 **** 0.06
20525 H 13.122005402858434 52.714257584398354 44.74254051691415 H 0.0 **** 0.06
20526 C 19.048985394406614 37.41521559055357 104.21070348819285 C 0.0 **** -0.24
20527 H 18.940930055792744 37.25413449420961 105.28330629790344 H 0.0 **** 0.06
20528 H 19.206785467439992 38.47719267962941 104.01760311073258 H 0.0 **** 0.06
20529 H 18.1442099599314 37.08345032597316 103.70139799583205 H 0.0 **** 0.06
20530 H 19.903352815953962 36.847840710296225 103.84208051052411 H 0.0 **** 0.06
20531 C 10.6740730082877 106.37161692307032 44.75255249419365 C 0.0 **** -0.24
20532 H 11.026295789889899 107.29404486098059 45.21410386505616 H 0.0 **** 0.06
20533 H 9.6645816095154 106.15319206556043 45.10219603675321 H 0.0 **** 0.06
20534 H 11.338921116123533 105.55185214114553 45.02598181550911 H 0.0 **** 0.06
20535 H 10.66649320607559 106.48746493409905 43.669339871890884 H 0.0 **** 0.06
20536 C 53.349812712798496 107.00232778564306 84.01651902330747 C 0.0 **** -0.24
20537 H 52.669751138673405 107.77563036016215 83.65871004206593 H 0.0 **** 0.06
20538 H 53.84680268166875 107.34830844778656 84.92345412109711 H 0.0 **** 0.06
20539 H 54.09512204359106 106.79166940786499 83.25032723681039 H 0.0 **** 0.06
20540 H 52.78572646204145 106.09580804394497 84.23505163961153 H 0.0 **** 0.06
20541 C 63.9366446524092 22.69540306743845 20.86103044911151 C 0.0 **** -0.24
20542 H 64.78723857104592 22.06270805135621 20.604242701537547 H 0.0 **** 0.06
20543 H 63.651745814152946 23.2893437545178 19.99279605751854 H 0.0 **** 0.06
20544 H 64.21169314820997 23.357181012031532 21.682169979831905 H 0.0 **** 0.06
20545 H 63.09767741276971 22.068160017711534 21.164708009918556 H 0.0 **** 0.06
20546 C 51.51838443847393 85.41183176829486 76.12429610542995 C 0.0 **** -0.24
20547 H 51.31480318375267 85.98829749030983 77.02687619748758 H 0.0 **** 0.06
20548 H 51.61894352111153 84.35672461488525 76.38210749897115 H 0.0 **** 0.06
20549 H 52.44464604460583 85.76458643673868 75.66967044326015 H 0.0 **** 0.06
20550 H 50.69693596519676 85.53768645820162 75.41986881797982 H 0.0 **** 0.06
20551 C 46.218552713634466 67.11494210100146 103.33289882113763 C 0.0 **** -0.24
20552 H 45.724725780006374 67.28460462137024 104.28921122125614 H 0.0 **** 0.06
20553 H 45.501703709197265 67.25800341691003 102.52410969738203 H 0.0 **** 0.06
20554 H 46.605000386564036 66.09588622294369 103.29914650129898 H 0.0 **** 0.06
20555 H 47.04205904897228 67.81895494101164 103.21881097694511 H 0.0 **** 0.06
20556 C 92.99331050488351 27.981742858316267 57.67111544203283 C 0.0 **** -0.24
20557 H 93.37950261859913 26.9630906007541 57.6709477863069 H 0.0 **** 0.06
20558 H 92.49998962425178 28.182533139645642 58.62231082282767 H 0.0 **** 0.06
20559 H 92.27697043771747 28.09858148552493 56.85861655001088 H 0.0 **** 0.06
20560 H 93.81623229006641 28.68275494274701 57.53389072159729 H 0.0 **** 0.06
20561 C 1.5776419345488364 44.14061725034287 104.7254671071434 C 0.0 **** -0.24
20562 H 2.0469573048426355 44.96710306696309 105.26028315398335 H 0.0 **** 0.06
20563 H 0.4962738654391643 44.28118490865171 104.71848509353993 H 0.0 **** 0.06
20564 H 1.8197965788125288 43.201900052283406 105.22390569107444 H 0.0 **** 0.06
20565 H 1.9475234370306538 44.11427819665556 103.70143307692001 H 0.0 **** 0.06
20566 C 41.286750258324304 69.95244844093949 33.05155040081365 C 0.0 **** -0.24
20567 H 41.89976080955444 70.77898199209301 33.41031521779297 H 0.0 **** 0.06
20568 H 40.59817196065531 69.64297324310004 33.83867552525439 H 0.0 **** 0.06
20569 H 41.930350913070725 69.11478398464686 32.781920387561655 H 0.0 **** 0.06
20570 H 40.72042161781354 70.27244429480669 32.17746382573915 H 0.0 **** 0.06
20571 C 70.51919830300345 22.234363423248965 39.793066925752875 C 0.0 **** -0.24
20572 H 70.0821700707274 21.81433526257908 40.69976180367368 H 0.0 **** 0.06
20573 H 71.6065451791339 22.21045828232519 39.869481648285934 H 0.0 **** 0.06
20574 H 70.18530976422068 23.265219667258975 39.67332248900802 H 0.0 **** 0.06
20575 H 70.20175061107639 21.646833507572666 38.931598166058365 H 0.0 **** 0.06
20576 C 95.18057632751845 56.5783375673106 46.919577150548854 C 0.0 **** -0.24
20577 H 95.03074864474341 57.33892342687648 47.68665781184435 H 0.0 **** 0.06
20578 H 95.74194919007321 57.00741221637724 46.08881642523688 H 0.0 **** 0.06
20579 H 94.21253012383286 56.22783518907782 46.56176786017149 H 0.0 **** 0.06
20580 H 95.73723597494178 55.74140853535939 47.3411452857697 H 0.0 **** 0.06
20581 C 35.11114231009992 94.98368070444091 19.945558957184872 C 0.0 **** -0.24
20582 H 36.19155445487664 95.12034194936322 19.991266315198672 H 0.0 **** 0.06
20583 H 34.815535435276104 94.19611000759949 20.638752898051123 H 0.0 **** 0.06
20584 H 34.82204459692369 94.70505965470558 18.932236855104676 H 0.0 **** 0.06
20585 H 34.61576977614601 95.91516890334992 20.221413454370918 H 0.0 **** 0.06
20586 C 12.164328005426853 41.76663322213028 25.778613344929852 C 0.0 **** -0.24
20587 H 11.719946022373875 40.82285512675694 26.096308912600648 H 0.0 **** 0.06
20588 H 13.149725615402986 41.875203622028494 26.231737922293917 H 0.0 **** 0.06
20589 H 11.526003315910742 42.59246332735759 26.09429537046651 H 0.0 **** 0.06
20590 H 12.25972229286549 41.77593338004289 24.693263514617684 H 0.0 **** 0.06
20591 C 14.523340214584465 81.42810542367522 69.74945234310184 C 0.0 **** -0.24
20592 H 15.456143037679396 81.59225448958995 70.28943092368633 H 0.0 **** 0.06
20593 H 13.697634658046297 81.86662360432436 70.31004222410252 H 0.0 **** 0.06
20594 H 14.35580943704025 80.35678363322003 69.6333145723952 H 0.0 **** 0.06
20595 H 14.585137825336176 81.89474604377392 68.76677772417725 H 0.0 **** 0.06
20596 C 24.49183305696613 13.72834267971163 7.355633605540573 C 0.0 **** -0.24
20597 H 24.669991412248464 13.743365972660484 6.2805844232490635 H 0.0 **** 0.06
20598 H 23.995002853661674 14.651540820937925 7.654589830823868 H 0.0 **** 0.06
20599 H 25.4434325318295 13.641944657075328 7.879654272833349 H 0.0 **** 0.06
20600 H 23.85978346812493 12.8769841694849 7.607819761788933 H 0.0 **** 0.06
20601 C 33.93710266531514 107.3449707343272 99.29109436347392 C 0.0 **** -0.24
20602 H 34.497073769280064 107.38122147932947 98.3568106308947 H 0.0 **** 0.06
20603 H 34.26785149162242 106.4895041714473 99.88052465107674 H 0.0 **** 0.06
20604 H 32.87352617673088 107.24732635031185 99.07300837156959 H 0.0 **** 0.06
20605 H 34.1097663927311 108.26280960819243 99.85410498295471 H 0.0 **** 0.06
20606 C 53.8319591476329 61.8679964037464 38.87710196910288 C 0.0 **** -0.24
20607 H 53.21110109270403 62.71300726882832 38.57793676104488 H 0.0 **** 0.06
20608 H 54.77817477202621 62.23482411488857 39.27439564802463 H 0.0 **** 0.06
20609 H 54.02075474322051 61.232364914161295 38.01257571441243 H 0.0 **** 0.06
20610 H 53.314454432485675 61.292238419861604 39.64510166189319 H 0.0 **** 0.06
20611 C 82.30207548042392 86.14315187277936 3.81482823163868 C 0.0 **** -0.24
20612 H 81.25971976506997 85.84238325616474 3.9195595879913014 H 0.0 **** 0.06
20613 H 82.73326393965701 86.30716145984977 4.803253401163106 H 0.0 **** 0.06
20614 H 82.35763244843056 87.06462099785105 3.235904315533519 H 0.0 **** 0.06
20615 H 82.8567012289376 85.35746359009437 3.302348927142816 H 0.0 **** 0.06
20616 C 103.38858234668491 70.58503978360757 101.96545292372545 C 0.0 **** -0.24
20617 H 104.05168058019702 69.72096351007723 101.98559545846626 H 0.0 **** 0.06
20618 H 103.8446662498048 71.37816591479593 101.37220481257685 H 0.0 **** 0.06
20619 H 103.22453657849617 70.94133002952586 102.98299022824466 H 0.0 **** 0.06
20620 H 102.43507645272147 70.30132127240023 101.52186516743734 H 0.0 **** 0.06
20621 C 17.81243652904874 74.26125571174052 95.40190853428733 C 0.0 **** -0.24
20622 H 17.35929106804926 73.71601212023538 96.23080633240335 H 0.0 **** 0.06
20623 H 17.229597854767462 74.09487234748444 94.49572227211289 H 0.0 **** 0.06
20624 H 18.832349894799464 73.90694066608704 95.24930288201314 H 0.0 **** 0.06
20625 H 17.82870467917286 75.32639655753785 95.63388097646299 H 0.0 **** 0.06
20626 C 90.75308315879624 0.7402624627777357 79.67483880954546 C 0.0 **** -0.24
20627 H 89.88949226360728 0.16641792167757785 79.33472529380757 H 0.0 **** 0.06
20628 H 91.39554612940594 0.10247567974377603 80.2815299908368 H 0.0 **** 0.06
20629 H 90.41263320532525 1.587868963158087 80.270077366969 H 0.0 **** 0.06
20630 H 91.31060129758993 1.103044453192382 78.81102885326608 H 0.0 **** 0.06
20631 C 86.96499252303065 100.2933520529999 30.23682684377978 C 0.0 **** -0.24
20632 H 87.90161930160654 99.98388776073736 29.773842008563705 H 0.0 **** 0.06
20633 H 87.1592721651953 101.0959094620205 30.949600284436556 H 0.0 **** 0.06
20634 H 86.51930142044849 99.44593236822973 30.757248939170026 H 0.0 **** 0.06
20635 H 86.2790566226231 100.648809376174 29.46706586850921 H 0.0 **** 0.06
20636 C 81.59666153679315 45.575892475985434 78.84376631951694 C 0.0 **** -0.24
20637 H 81.31363345932466 46.479138885653796 78.30250304267118 H 0.0 **** 0.06
20638 H 82.68327060179665 45.50299566719847 78.88418459344855 H 0.0 **** 0.06
20639 H 81.1917613152453 44.70372263987913 78.33068597524465 H 0.0 **** 0.06
20640 H 81.19647654235652 45.62022426832655 79.85703605741277 H 0.0 **** 0.06
20641 C 3.2242589577311946 66.41124383510157 87.78070008055872 C 0.0 **** -0.24
20642 H 3.180429016245057 66.1572624053899 88.83993057837588 H 0.0 **** 0.06
20643 H 2.942059528170603 67.45616947157102 87.64586003426759 H 0.0 **** 0.06
20644 H 2.537247581422264 65.77365238243966 87.22434644446652 H 0.0 **** 0.06
20645 H 4.239453379182237 66.25849242756553 87.41264543434069 H 0.0 **** 0.06
20646 C 103.22170085816629 44.66208807315934 6.580099800245353 C 0.0 **** -0.24
20647 H 102.47098458638106 44.454621113419705 7.342046227174697 H 0.0 **** 0.06
20648 H 103.50699174774195 45.71290122578705 6.6276148268122554 H 0.0 **** 0.06
20649 H 102.81109555000461 44.440387213901175 5.595452740438315 H 0.0 **** 0.06
20650 H 104.09907519468362 44.038807193603475 6.756006414385105 H 0.0 **** 0.06
20651 C 86.43494251976426 84.21896331939367 50.97231125824642 C 0.0 **** -0.24
20652 H 86.8843408210368 83.27304902654743 50.670450085894075 H 0.0 **** 0.06
20653 H 85.56268896035317 84.42136224123036 50.35055625733242 H 0.0 **** 0.06
20654 H 87.16262980654844 85.02131394189381 50.849231725137216 H 0.0 **** 0.06
20655 H 86.1319827948868 84.16000075516038 52.01743261798195 H 0.0 **** 0.06
20656 C 21.31390215597642 99.07305648152538 72.32985221541122 C 0.0 **** -0.24
20657 H 21.008444219705552 98.92396412332805 73.36552918438832 H 0.0 **** 0.06
20658 H 21.094232961271302 98.17323403051272 71.7544663365947 H 0.0 **** 0.06
20659 H 22.384282225019774 99.27592705833604 72.29330217694437 H 0.0 **** 0.06
20660 H 20.768399260834656 99.91715618289307 71.90838201519759 H 0.0 **** 0.06
20661 C 47.64020265774241 48.519288209442585 28.15441759544818 C 0.0 **** -0.24
20662 H 47.67312218606878 47.46233067439144 27.890946695435105 H 0.0 **** 0.06
20663 H 47.214798677820625 49.08750414211928 27.32645682753717 H 0.0 **** 0.06
20664 H 48.65062327179015 48.874502474087215 28.35870883328181 H 0.0 **** 0.06
20665 H 47.02230943922268 48.65341798595838 29.043181408416444 H 0.0 **** 0.06
20666 C 4.134773345499383 59.74506587603301 33.99380098697634 C 0.0 **** -0.24
20667 H 3.9812962470371644 60.624745235011105 33.36942543810551 H 0.0 **** 0.06
20668 H 3.905939138926499 59.99134487592511 35.03123748258625 H 0.0 **** 0.06
20669 H 5.1731806195780905 59.4216206632336 33.91786404571468 H 0.0 **** 0.06
20670 H 3.4783984437930258 58.94223876462745 33.65758454520699 H 0.0 **** 0.06
20671 C 9.748099828039258 24.767184173177654 53.26252974367543 C 0.0 **** -0.24
20672 H 10.583536158950224 24.309296731395193 53.79321340400031 H 0.0 **** 0.06
20673 H 10.125212382477827 25.326754037008683 52.40576862469254 H 0.0 **** 0.06
20674 H 9.21911649611576 25.44411029855891 53.93364190685554 H 0.0 **** 0.06
20675 H 9.066209286950112 23.989470560106085 52.91867557881699 H 0.0 **** 0.06
20676 C 76.63763784304804 33.087830971386836 51.960844712750166 C 0.0 **** -0.24
20677 H 77.48812274582853 33.537052274253796 51.447753562355686 H 0.0 **** 0.06
20678 H 75.73912176618282 33.66814437928903 51.7497094484904 H 0.0 **** 0.06
20679 H 76.82294070614395 33.080349450700254 53.034424091646564 H 0.0 **** 0.06
20680 H 76.50188841019614 32.06502342601752 51.609230315188505 H 0.0 **** 0.06
20681 C 5.932628764186603 48.8185240715243 77.50156235574852 C 0.0 **** -0.24
20682 H 5.811442049836813 49.253086870787456 78.49413368725419 H 0.0 **** 0.06
20683 H 5.58148539336382 47.78626570364243 77.51228157070042 H 0.0 **** 0.06
20684 H 6.985051063971213 48.84232283186397 77.22130940606297 H 0.0 **** 0.06
20685 H 5.3504967827312555 49.39356081435463 76.78127076417456 H 0.0 **** 0.06
20686 C 49.19427430620647 89.19942824095624 76.5624519765228 C 0.0 **** -0.24
20687 H 50.2550246090143 89.02360031256694 76.73569486899129 H 0.0 **** 0.06
20688 H 48.913477370387 88.7969064312465 75.5886587805768 H 0.0 **** 0.06
20689 H 48.99476222275126 90.27089640883095 76.58460528055252 H 0.0 **** 0.06
20690 H 48.612266315703664 88.70563117416529 77.3405573774221 H 0.0 **** 0.06
20691 C 44.552489681422884 44.021856025652504 18.0423225202058 C 0.0 **** -0.24
20692 H 43.82652552579921 44.71792442102544 17.622301461651205 H 0.0 **** 0.06
20693 H 44.972121782750946 44.44222598986176 18.956186212692018 H 0.0 **** 0.06
20694 H 45.35151536345245 43.85064782412669 17.319746806467208 H 0.0 **** 0.06
20695 H 44.05973028793731 43.07595882081464 18.26869953958601 H 0.0 **** 0.06
20696 C 91.17005447452492 2.190731035990325 16.051422369167838 C 0.0 **** -0.24
20697 H 90.73724408886002 2.579250705564334 16.97407483459166 H 0.0 **** 0.06
20698 H 91.39455804482876 3.019859751609033 15.379842424928029 H 0.0 **** 0.06
20699 H 90.46068582249515 1.5159865275293214 15.57287895766099 H 0.0 **** 0.06
20700 H 92.0880376915444 1.6502572327901817 16.2815391387211 H 0.0 **** 0.06
20701 C 99.37387169673178 50.00668732823853 103.02619193211837 C 0.0 **** -0.24
20702 H 100.2809908105589 49.40647339442946 102.95035626444894 H 0.0 **** 0.06
20703 H 99.03384016380954 50.02145745354214 104.06169773307363 H 0.0 **** 0.06
20704 H 98.5985450154634 49.572167720235875 102.39496683372153 H 0.0 **** 0.06
20705 H 99.58315348131475 51.02446849842355 102.69735842859222 H 0.0 **** 0.06
20706 C 2.6376018137155537 80.15684466545588 78.90007960711887 C 0.0 **** -0.24
20707 H 1.9727830595577034 79.68969753223465 79.62597449991063 H 0.0 **** 0.06
20708 H 3.6567070425618926 79.8049626167822 79.06273401642736 H 0.0 **** 0.06
20709 H 2.602541966898043 81.2393848301646 79.01942124158253 H 0.0 **** 0.06
20710 H 2.318138262300266 79.89249167337852 77.89170396736603 H 0.0 **** 0.06
20711 C 100.65093403456794 90.44914224437656 17.668232220750596 C 0.0 **** -0.24
20712 H 101.40997579884126 90.39474868056504 18.44847435794531 H 0.0 **** 0.06
20713 H 101.03750113567413 91.02245369616327 16.82486232393413 H 0.0 **** 0.06
20714 H 99.76005189450501 90.93878396123523 18.062331061450752 H 0.0 **** 0.06
20715 H 100.39634299757195 89.44249256015644 17.337839058450054 H 0.0 **** 0.06
20716 C 96.57912348460769 94.00211323305956 20.048787475245675 C 0.0 **** -0.24
20717 H 97.18401875779813 94.89625905861041 19.902388188026862 H 0.0 **** 0.06
20718 H 95.979673882562 94.11290888083252 20.952663787254686 H 0.0 **** 0.06
20719 H 97.23116768138829 93.1349034375106 20.148111936536043 H 0.0 **** 0.06
20720 H 95.92061648186206 93.86375999439102 19.19072930803949 H 0.0 **** 0.06
20721 C 71.28931876350055 102.34201416517288 9.566176594115746 C 0.0 **** -0.24
20722 H 71.85934464803694 102.7958094358316 8.755236259989715 H 0.0 **** 0.06
20723 H 71.80337410717897 102.51169579094211 10.51156331305748 H 0.0 **** 0.06
20724 H 71.19643930975536 101.27002906897353 9.388786401097605 H 0.0 **** 0.06
20725 H 70.2962793437872 102.79083452924453 9.606200435201174 H 0.0 **** 0.06
20726 C 26.88242037219318 59.37673903411948 41.949699753062696 C 0.0 **** -0.24
20727 H 27.500729722157544 59.00831682242616 42.76821027833007 H 0.0 **** 0.06
20728 H 26.296703291267804 58.55459211366116 41.53864890680273 H 0.0 **** 0.06
20729 H 27.521556157892178 59.79270385155138 41.170824548252675 H 0.0 **** 0.06
20730 H 26.21159978383494 60.15120207087833 42.321510999541786 H 0.0 **** 0.06
20731 C 46.22524351629954 84.56116526927053 82.16024600539814 C 0.0 **** -0.24
20732 H 47.21519842819606 85.00236829979002 82.04325440631779 H 0.0 **** 0.06
20733 H 45.99064142569955 84.47142295128907 83.22142086957358 H 0.0 **** 0.06
20734 H 46.21113177203139 83.5738217444254 81.69957752991921 H 0.0 **** 0.06
20735 H 45.48464296355738 85.19814187811676 81.67610397032566 H 0.0 **** 0.06
20736 C 2.1694375021891377 31.64624406490094 58.21333348706068 C 0.0 **** -0.24
20737 H 3.104044209430728 31.326694094785324 57.752338928013444 H 0.0 **** 0.06
20738 H 1.899089255476694 32.63304579052726 57.838074879644694 H 0.0 **** 0.06
20739 H 2.2950002776790246 31.689942241523397 59.295577619868396 H 0.0 **** 0.06
20740 H 1.3805050884480137 30.934966003190254 57.96702255902326 H 0.0 **** 0.06
20741 C 83.59666306975603 107.44602637146235 26.85186774191412 C 0.0 **** -0.24
20742 H 82.80838296529231 108.19475095245213 26.779924744615133 H 0.0 **** 0.06
20743 H 83.54799759747544 106.96058542667339 27.827251609062607 H 0.0 **** 0.06
20744 H 84.56731244016383 107.92900396380077 26.734763686456795 H 0.0 **** 0.06
20745 H 83.46362149306212 106.70214227670667 26.067237136646735 H 0.0 **** 0.06
20746 C 91.62506749974438 40.872210214958656 60.27026452079343 C 0.0 **** -0.24
20747 H 92.54120346643903 41.452138076848925 60.15244050670913 H 0.0 **** 0.06
20748 H 91.01348632506769 41.316779494877686 61.05469006262871 H 0.0 **** 0.06
20749 H 91.8781942403002 39.84703308574519 60.541612267117046 H 0.0 **** 0.06
20750 H 91.07161163357986 40.87289339909346 59.331245352069686 H 0.0 **** 0.06
20751 C 17.491222997294244 78.47851218530644 19.233644596382234 C 0.0 **** -0.24
20752 H 17.865418346390072 77.9735213352397 18.3433312104064 H 0.0 **** 0.06
20753 H 18.315554698507754 78.98039199311644 19.740625646062654 H 0.0 **** 0.06
20754 H 17.042452190867692 77.74718010830848 19.905739092990032 H 0.0 **** 0.06
20755 H 16.740267125287517 79.21507666542745 18.945129453718433 H 0.0 **** 0.06
20756 C 88.57982621065563 65.61367226499544 104.98308347002339 C 0.0 **** -0.24
20757 H 89.24531388519836 65.58773578018923 105.84607496879141 H 0.0 **** 0.06
20758 H 89.03019774604968 66.21812824321029 104.19549072391462 H 0.0 **** 0.06
20759 H 87.62385344003769 66.04939371379487 105.27447285057039 H 0.0 **** 0.06
20760 H 88.42006562700222 64.59896389121934 104.61717038974558 H 0.0 **** 0.06
20761 C 53.06942643151459 22.46407266858631 69.53483667556073 C 0.0 **** -0.24
20762 H 53.777178146577825 23.288577232760275 69.62221864948107 H 0.0 **** 0.06
20763 H 52.107911647537414 22.846707404884626 69.19149446019449 H 0.0 **** 0.06
20764 H 52.94531692715886 21.987560358780428 70.50645215179442 H 0.0 **** 0.06
20765 H 53.44780225367145 21.735345779519093 68.81771971174565 H 0.0 **** 0.06
20766 C 97.66064365385006 91.45140887535771 12.988651854392472 C 0.0 **** -0.24
20767 H 98.58650034577062 91.2778627383023 12.439562586959681 H 0.0 **** 0.06
20768 H 97.43475393580542 90.58002458198588 13.602873383827841 H 0.0 **** 0.06
20769 H 96.84712713288002 91.62050790685767 12.282721771016782 H 0.0 **** 0.06
20770 H 97.77583882592683 92.32800680408201 13.626334391735028 H 0.0 **** 0.06
20771 C 80.37247243709731 73.63765684477463 105.04311554289525 C 0.0 **** -0.24
20772 H 81.14686984097145 72.89839268505736 104.8414203124546 H 0.0 **** 0.06
20773 H 79.39786134690027 73.22237743318613 104.78306710896909 H 0.0 **** 0.06
20774 H 80.55762809596251 74.53015981953973 104.44555661161137 H 0.0 **** 0.06
20775 H 80.38602449825137 73.89862025071994 106.10116435481451 H 0.0 **** 0.06
20776 C 109.4936208820607 56.69707357329304 94.30725013544225 C 0.0 **** -0.24
20777 H 109.6167620848135 56.02644672320878 93.4563184229187 H 0.0 **** 0.06
20778 H 109.94736694565565 57.6608369899883 94.07729486786313 H 0.0 **** 0.06
20779 H 109.9806360270789 56.26580285469589 95.18254593658621 H 0.0 **** 0.06
20780 H 108.4321852358786 56.83359870764059 94.5122698446426 H 0.0 **** 0.06
20781 C 46.22207125630764 95.46633217542848 14.415744073026502 C 0.0 **** -0.24
20782 H 46.17126661645756 94.80931033454674 15.28412766609561 H 0.0 **** 0.06
20783 H 45.215792465731305 95.7823109253914 14.141378861341753 H 0.0 **** 0.06
20784 H 46.67696387029587 94.93133458940918 13.582161952666297 H 0.0 **** 0.06
20785 H 46.82525425097381 96.34161429718742 14.65838038769957 H 0.0 **** 0.06
20786 C 54.603463202141285 26.43975507698775 64.94091469600538 C 0.0 **** -0.24
20787 H 55.178163344995454 26.47998410043658 64.01477522992528 H 0.0 **** 0.06
20788 H 55.28319802374688 26.478736276229455 65.7916736891658 H 0.0 **** 0.06
20789 H 54.03204522021838 25.51165519634816 64.97341094978574 H 0.0 **** 0.06
20790 H 53.92073943640665 27.288138476878032 64.9814202550254 H 0.0 **** 0.06
20791 C 63.46306996147588 44.84374973540508 20.62323054735245 C 0.0 **** -0.24
20792 H 64.3940628509102 44.293759340436765 20.48400161958267 H 0.0 **** 0.06
20793 H 62.7479361937598 44.547129018704794 19.85536353186194 H 0.0 **** 0.06
20794 H 63.65800724684115 45.913037708731935 20.546376740403957 H 0.0 **** 0.06
20795 H 63.05309221085864 44.61901521649597 21.608227267239783 H 0.0 **** 0.06
20796 C 30.37058532000114 15.271602919841143 37.99937478236828 C 0.0 **** -0.24
20797 H 30.59506801994373 15.608583603819426 39.01174745893738 H 0.0 **** 0.06
20798 H 29.347283833194943 15.547601204297706 37.74405557521277 H 0.0 **** 0.06
20799 H 30.47979631335403 14.188674663076114 37.94522510359474 H 0.0 **** 0.06
20800 H 31.059948527659735 15.7421219490747 37.29861943786332 H 0.0 **** 0.06
20801 C 96.40388542002287 50.59288254664157 76.98170137457996 C 0.0 **** -0.24
20802 H 96.84232361584986 50.42019618924792 75.99857561576758 H 0.0 **** 0.06
20803 H 95.60801608256423 51.33329622130831 76.8987829153533 H 0.0 **** 0.06
20804 H 97.17249778490093 50.95938473183067 77.66335753824528 H 0.0 **** 0.06
20805 H 95.99355086758945 49.65874674139758 77.36556557886796 H 0.0 **** 0.06
20806 C 7.076058521693767 8.73458657792753 61.53116978623166 C 0.0 **** -0.24
20807 H 6.898321625129029 8.755171378765567 62.60626546203923 H 0.0 **** 0.06
20808 H 8.143482207999227 8.61502743678625 61.342518766621026 H 0.0 **** 0.06
20809 H 6.729701028310217 9.6681527478965 61.08771679070668 H 0.0 **** 0.06
20810 H 6.533410329807566 7.898846806124681 61.089281970742434 H 0.0 **** 0.06
20811 C 6.429624252556172 67.56604055509526 7.9507734867110855 C 0.0 **** -0.24
20812 H 7.099152043812605 67.81854271009742 7.1287612950292925 H 0.0 **** 0.06
20813 H 7.010586443988897 67.42209368956814 8.861408465836192 H 0.0 **** 0.06
20814 H 5.892849028198054 66.64699272262206 7.712294179244779 H 0.0 **** 0.06
20815 H 5.714481188110234 68.37517112033291 8.099578718974186 H 0.0 **** 0.06
20816 C 52.69083013420223 47.44388033780004 89.87304490638661 C 0.0 **** -0.24
20817 H 52.206177544825366 47.12281035509497 88.951158370754 H 0.0 **** 0.06
20818 H 52.46148396234445 48.49319026784198 90.05824442025818 H 0.0 **** 0.06
20819 H 53.76991358664442 47.318479622470704 89.77859664344544 H 0.0 **** 0.06
20820 H 52.326917043346526 46.839236468936576 90.7035711868474 H 0.0 **** 0.06
20821 C 83.01052158664999 86.68131054527075 29.402904190868128 C 0.0 **** -0.24
20822 H 83.89559967678997 86.84835214840906 30.01687303903526 H 0.0 **** 0.06
20823 H 83.31232026743419 86.30779746009182 28.42372777257225 H 0.0 **** 0.06
20824 H 82.46875819459751 87.61968646406804 29.283309299104843 H 0.0 **** 0.06
20825 H 82.3651901078112 85.94844485241619 29.88787537935886 H 0.0 **** 0.06
20826 C 60.43317884182443 37.984966188916246 74.74908925500411 C 0.0 **** -0.24
20827 H 59.696616786861796 38.28321594509117 75.4951939981594 H 0.0 **** 0.06
20828 H 60.66169475729542 38.83481743374483 74.10552633811476 H 0.0 **** 0.06
20829 H 60.030654093441925 37.17122209691803 74.14646731202164 H 0.0 **** 0.06
20830 H 61.34232563266299 37.65201352376084 75.24915371830816 H 0.0 **** 0.06
20831 C 97.91175559819057 0.7917799790401432 22.912577874048132 C 0.0 **** -0.24
20832 H 97.90884449242124 1.760786043848043 23.41088761215676 H 0.0 **** 0.06
20833 H 98.72631881088635 0.1830300636536606 23.30711970724181 H 0.0 **** 0.06
20834 H 98.05095972208585 0.9350690564759816 21.84074983450806 H 0.0 **** 0.06
20835 H 96.96162631778135 0.28774829655301914 23.091069622196454 H 0.0 **** 0.06
20836 C 5.604179812469567 41.71481992563321 106.99082272798424 C 0.0 **** -0.24
20837 H 4.737719677364765 42.32138767274995 107.25318742939976 H 0.0 **** 0.06
20838 H 5.457183814853323 41.28261332166642 106.00035740432608 H 0.0 **** 0.06
20839 H 5.723689129613007 40.91659840904674 107.7221172679765 H 0.0 **** 0.06
20840 H 6.496982978522993 42.33991200521581 106.98514377267881 H 0.0 **** 0.06
20841 C 77.11577978480764 44.008522924251565 18.488036386002772 C 0.0 **** -0.24
20842 H 76.5962130841599 44.623329776853325 19.22288251455409 H 0.0 **** 0.06
20843 H 76.42459668383529 43.7330633703275 17.691247933960124 H 0.0 **** 0.06
20844 H 77.49188003516747 43.10628187453321 18.97098315760202 H 0.0 **** 0.06
20845 H 77.9496140310493 44.57056694264756 18.068932853435406 H 0.0 **** 0.06
20846 C 70.22744351961359 99.56911887006189 24.109197570011958 C 0.0 **** -0.24
20847 H 69.28371572007435 99.15414276208652 24.463148885638134 H 0.0 **** 0.06
20848 H 70.82086917822205 99.89905491331955 24.96173088000063 H 0.0 **** 0.06
20849 H 70.02873004248518 100.4167346374318 23.45443023975841 H 0.0 **** 0.06
20850 H 70.77624758589678 98.80442234152339 23.558687602562316 H 0.0 **** 0.06
20851 C 64.24806679852372 15.935848995193453 52.18474372240951 C 0.0 **** -0.24
20852 H 63.52299648734606 16.728919251507385 51.999896452872576 H 0.0 **** 0.06
20853 H 64.66483614313432 15.596790038152434 51.23680956990535 H 0.0 **** 0.06
20854 H 63.755613526469006 15.102572980982092 52.685197199956605 H 0.0 **** 0.06
20855 H 65.04957252720732 16.317404125316134 52.81855141598419 H 0.0 **** 0.06
20856 C 91.64400616233797 109.13333836669256 35.546309658578764 C 0.0 **** -0.24
20857 H 90.80851675914766 109.68125519058697 35.110698053889394 H 0.0 **** 0.06
20858 H 91.28948636466541 108.17709572767558 35.931555828388866 H 0.0 **** 0.06
20859 H 92.07588148403164 109.71609375728735 36.35981609074753 H 0.0 **** 0.06
20860 H 92.40130536445984 108.95870501934655 34.782045322363274 H 0.0 **** 0.06
20861 C 17.795403135739775 50.524348962363035 65.00649521103622 C 0.0 **** -0.24
20862 H 18.47764400948816 51.24344047714612 64.55367336788692 H 0.0 **** 0.06
20863 H 18.356692980369132 49.84572319303311 65.64872230132136 H 0.0 **** 0.06
20864 H 17.296738942513528 49.95341695616764 64.22280103288082 H 0.0 **** 0.06
20865 H 17.05013076195911 51.05499634454583 65.59988830085334 H 0.0 **** 0.06
20866 C 15.224401035805258 43.72737709654979 45.20327340905533 C 0.0 **** -0.24
20867 H 15.823924559657751 42.87822714089722 44.876676236232015 H 0.0 **** 0.06
20868 H 15.600330218753118 44.63914721348738 44.73788816809105 H 0.0 **** 0.06
20869 H 15.285364081375398 43.820552658830934 46.28690923984527 H 0.0 **** 0.06
20870 H 14.185886808797697 43.57188149778915 44.910392544873446 H 0.0 **** 0.06
20871 C 107.83206973096077 41.00770091621206 34.70681803986929 C 0.0 **** -0.24
20872 H 107.85139559696233 40.67804175160538 33.667334859473044 H 0.0 **** 0.06
20873 H 107.79435757137304 40.137617740755076 35.36309387880752 H 0.0 **** 0.06
20874 H 106.95141365915617 41.628620872963154 34.87395032215218 H 0.0 **** 0.06
20875 H 108.73053399393058 41.585939432550475 34.92081340082609 H 0.0 **** 0.06
20876 C 7.035438674505031 10.435020458541487 73.40810470285925 C 0.0 **** -0.24
20877 H 8.088787704840072 10.3795644204219 73.13102641907788 H 0.0 **** 0.06
20878 H 6.884231460968039 11.263599724660224 74.09933881481867 H 0.0 **** 0.06
20879 H 6.736907838247504 9.502125480724743 73.88596990034569 H 0.0 **** 0.06
20880 H 6.432988046513927 10.59291085269939 72.51306460838272 H 0.0 **** 0.06
20881 C 108.95013749202585 59.6755524002985 31.814816537961747 C 0.0 **** -0.24
20882 H 108.0161465981389 59.641675430005535 32.37691465276282 H 0.0 **** 0.06
20883 H 109.55683403020379 58.8064499090047 32.06741105490168 H 0.0 **** 0.06
20884 H 109.4932651257352 60.585658870521485 32.06975664520409 H 0.0 **** 0.06
20885 H 108.73105136037594 59.669416758224145 30.747515531760186 H 0.0 **** 0.06
20886 C 18.21024149518207 75.7378553058152 61.135818863548764 C 0.0 **** -0.24
20887 H 19.092846565501436 75.5737389562896 60.51783992928716 H 0.0 **** 0.06
20888 H 17.823001152444704 74.77916601076339 61.47898580761307 H 0.0 **** 0.06
20889 H 17.44704356922596 76.25019099105006 60.54924151926309 H 0.0 **** 0.06
20890 H 18.47870122928727 76.35066492189802 61.99684247054654 H 0.0 **** 0.06
20891 C 97.14176028060552 93.11327149686899 31.96607225212589 C 0.0 **** -0.24
20892 H 96.37699607943733 92.4342265241482 32.343343394335776 H 0.0 **** 0.06
20893 H 96.85337241269559 93.47215053141744 30.97768408055358 H 0.0 **** 0.06
20894 H 98.0938700713407 92.58716034868667 31.898857256251354 H 0.0 **** 0.06
20895 H 97.24270959657288 93.96064042779085 32.6452983313489 H 0.0 **** 0.06
20896 C 58.240819531565535 97.21183137278882 10.665123297072569 C 0.0 **** -0.24
20897 H 57.804479664831376 96.33460110760896 10.188501438669164 H 0.0 **** 0.06
20898 H 58.59305780762449 97.90345641540279 9.899698010012173 H 0.0 **** 0.06
20899 H 59.07862817143558 96.90532116901007 11.29208428736834 H 0.0 **** 0.06
20900 H 57.48693436649879 97.7029944683798 11.28045722313874 H 0.0 **** 0.06
20901 C 88.97681157021395 16.18736463690572 107.6272451561614 C 0.0 **** -0.24
20902 H 88.81559712442444 15.783895700171119 106.6276309415257 H 0.0 **** 0.06
20903 H 88.67293127733114 17.234351201893354 107.6484302166275 H 0.0 **** 0.06
20904 H 90.03327794385044 16.10953741000534 107.88411008214825 H 0.0 **** 0.06
20905 H 88.38494805520816 15.622274996539574 108.34671238935277 H 0.0 **** 0.06
20906 C 23.1023990478455 106.39868813241704 56.046671776087635 C 0.0 **** -0.24
20907 H 23.52902374754678 107.18661164236056 56.6677360189226 H 0.0 **** 0.06
20908 H 23.845779761755193 105.61546784127897 55.89293488585304 H 0.0 **** 0.06
20909 H 22.80682895316546 106.81473388432697 55.08359851407164 H 0.0 **** 0.06
20910 H 22.228831923444744 105.97714507141441 56.54456616313922 H 0.0 **** 0.06
20911 C 83.85818396378272 9.685760250392779 25.380274039200785 C 0.0 **** -0.24
20912 H 83.81597498510197 8.596206055894195 25.389759141253364 H 0.0 **** 0.06
20913 H 84.42347263232517 10.01897193017966 24.510158219203106 H 0.0 **** 0.06
20914 H 84.34639118573594 10.038369197973662 26.28871528333204 H 0.0 **** 0.06
20915 H 82.8463092164962 10.087225833318094 25.331748674305544 H 0.0 **** 0.06
20916 C 51.708917909506695 13.777786566092573 99.28532308517123 C 0.0 **** -0.24
20917 H 52.741994847570616 14.127571485029137 99.29297101430814 H 0.0 **** 0.06
20918 H 51.41969243327965 13.478734577213913 100.29284301004287 H 0.0 **** 0.06
20919 H 51.6206035324614 12.923797313665801 98.61357700022637 H 0.0 **** 0.06
20920 H 51.0562041757658 14.579842879249242 98.9411337470878 H 0.0 **** 0.06
20921 C 66.79642783643345 64.42085509880417 67.24586342752661 C 0.0 **** -0.24
20922 H 67.31562850584413 64.14016875453136 68.16227638440927 H 0.0 **** 0.06
20923 H 67.48644739736949 64.94194759066379 66.58181485274775 H 0.0 **** 0.06
20924 H 65.96031191469245 65.07682735289195 67.48919130335099 H 0.0 **** 0.06
20925 H 66.42241814303998 63.52374236477864 66.75145225625573 H 0.0 **** 0.06
20926 C 2.3156037204462336 65.37870603816026 69.17524165598576 C 0.0 **** -0.24
20927 H 1.254552392299388 65.56779318013687 69.01391908890093 H 0.0 **** 0.06
20928 H 2.839708090078318 66.32881531608564 69.28945614181617 H 0.0 **** 0.06
20929 H 2.7226603765050186 64.84007000746476 68.31946833789073 H 0.0 **** 0.06
20930 H 2.4461644142397745 64.78073001864436 70.07718924318647 H 0.0 **** 0.06
20931 C 85.51421381947982 2.0717259540586213 78.11823060643292 C 0.0 **** -0.24
20932 H 86.40470591145736 1.9880299420454293 77.49506314439088 H 0.0 **** 0.06
20933 H 85.74458991672502 2.670770726828323 79.00044610327427 H 0.0 **** 0.06
20934 H 85.19237165390399 1.0769768736256822 78.42737422883465 H 0.0 **** 0.06
20935 H 84.71712238305754 2.552036145986321 77.5506945043312 H 0.0 **** 0.06
20936 C 12.18374437045382 35.01591559929541 92.67289196065572 C 0.0 **** -0.24
20937 H 11.272582047391879 34.562732789965864 93.06499078321444 H 0.0 **** 0.06
20938 H 12.942059831028246 35.04185103658965 93.45590978600511 H 0.0 **** 0.06
20939 H 11.969268655458851 36.03055332934232 92.33871496972439 H 0.0 **** 0.06
20940 H 12.548715796901902 34.42580874656579 91.8322579004128 H 0.0 **** 0.06
20941 C 7.564237841327769 60.77652677926753 89.65104599969436 C 0.0 **** -0.24
20942 H 7.154761517953363 59.78771213553861 89.44759934691666 H 0.0 **** 0.06
20943 H 8.09795416543316 61.13755703381486 88.77092555991862 H 0.0 **** 0.06
20944 H 8.251253447752882 60.718384714656224 90.49529532391034 H 0.0 **** 0.06
20945 H 6.752125745042905 61.463578469834005 89.89034459335392 H 0.0 **** 0.06
20946 C 98.83450738474184 93.49755119762204 88.04881464359244 C 0.0 **** -0.24
20947 H 99.31753706323741 92.55510268691363 87.78954059984352 H 0.0 **** 0.06
20948 H 99.0355651298005 94.23411433935992 87.2715506379327 H 0.0 **** 0.06
20949 H 99.22589559969624 93.85640573881349 89.00042092653018 H 0.0 **** 0.06
20950 H 97.75853226557399 93.34087401360298 88.13378955200187 H 0.0 **** 0.06
20951 C 106.24529272787076 23.078186688273654 106.158082038049 C 0.0 **** -0.24
20952 H 105.77187460932751 22.173331651370226 105.77578561261285 H 0.0 **** 0.06
20953 H 106.08938213981504 23.141895241581512 107.23568170661532 H 0.0 **** 0.06
20954 H 105.80424143841053 23.949853607847366 105.67544100833533 H 0.0 **** 0.06
20955 H 107.31392061746163 23.046856352705376 105.94594364116814 H 0.0 **** 0.06
20956 C 39.439556216429864 65.7713515967382 1.3812976130984973 C 0.0 **** -0.24
20957 H 39.92575457841545 66.65838101785415 0.9762633175045252 H 0.0 **** 0.06
20958 H 38.49701284878666 66.0552979104879 1.8479476839447777 H 0.0 **** 0.06
20959 H 40.08921605527187 65.30930199364639 2.1247544914708776 H 0.0 **** 0.06
20960 H 39.248310651440384 65.06219704796194 0.5754087471591758 H 0.0 **** 0.06
20961 C 43.7826890139388 35.67089258037075 6.218405896304194 C 0.0 **** -0.24
20962 H 43.506614523824204 36.28853410349646 5.36341015447953 H 0.0 **** 0.06
20963 H 43.09233718361314 35.860576479764916 7.040898619335772 H 0.0 **** 0.06
20964 H 44.79731873099786 35.91551001109028 6.530201719176761 H 0.0 **** 0.06
20965 H 43.73267458650119 34.618261770187246 5.936613616663694 H 0.0 **** 0.06
20966 C 71.26106668877799 15.205318240588795 40.248477164790124 C 0.0 **** -0.24
20967 H 70.72788273411975 14.535276307733241 39.57358712002044 H 0.0 **** 0.06
20968 H 71.4740725722485 14.686595913774724 41.182513804049705 H 0.0 **** 0.06
20969 H 70.64608779986666 16.081737394338447 40.45098706007254 H 0.0 **** 0.06
20970 H 72.19670381725027 15.517967745016065 39.78443801323731 H 0.0 **** 0.06
20971 C 17.426315119555145 80.29153638678734 47.67921166567987 C 0.0 **** -0.24
20972 H 16.693378159604162 80.97677192650838 47.25451002653946 H 0.0 **** 0.06
20973 H 16.91691315977869 79.54880469116699 48.29330867969895 H 0.0 **** 0.06
20974 H 18.13182592978428 80.84984018953176 48.29544967010187 H 0.0 **** 0.06
20975 H 17.964346333166613 79.79086690952542 46.874816671738635 H 0.0 **** 0.06
20976 C 7.291706732139389 77.19019351605874 56.832311874502906 C 0.0 **** -0.24
20977 H 6.666730392765544 77.6237049489277 56.052022030712735 H 0.0 **** 0.06
20978 H 7.502839983788604 77.94598229720947 57.58884272857975 H 0.0 **** 0.06
20979 H 8.227201087654379 76.84115750590479 56.39587745163909 H 0.0 **** 0.06
20980 H 6.769783106010323 76.35140407903441 57.29118200257387 H 0.0 **** 0.06
20981 C 31.326646596120213 46.809145944782244 64.70819766603523 C 0.0 **** -0.24
20982 H 31.13600478249134 45.73580073064062 64.68873879369352 H 0.0 **** 0.06
20983 H 30.996607544309228 47.25372638297188 63.769067034302395 H 0.0 **** 0.06
20984 H 32.39397549165204 46.98581679053274 64.83992574649562 H 0.0 **** 0.06
20985 H 30.77844697704458 47.2598586338903 65.53635718130556 H 0.0 **** 0.06
20986 C 99.12514855393448 57.50242500176295 3.986685565610152 C 0.0 **** -0.24
20987 H 98.17621062150704 57.170400963380246 3.5652787410417197 H 0.0 **** 0.06
20988 H 99.55426669182276 58.27471109546162 3.348953932953208 H 0.0 **** 0.06
20989 H 99.81070934043385 56.65704898077008 4.047691040935021 H 0.0 **** 0.06
20990 H 98.95749032591931 57.90647621913135 4.985260157832785 H 0.0 **** 0.06
20991 C 7.720290339191166 94.39749561590446 86.24130274552512 C 0.0 **** -0.24
20992 H 8.236032847654755 95.11971018787783 85.60834410059721 H 0.0 **** 0.06
20993 H 7.529771624470754 94.84271235931104 87.21847243250573 H 0.0 **** 0.06
20994 H 8.34270689626669 93.51074733244617 86.36065922030203 H 0.0 **** 0.06
20995 H 6.774059002389464 94.1186947986934 85.77842242922159 H 0.0 **** 0.06
20996 C 98.30700320483496 105.64661006676994 26.888574231688466 C 0.0 **** -0.24
20997 H 97.89857269734803 106.54518302919509 26.426978113521145 H 0.0 **** 0.06
20998 H 98.46870643058955 104.88645324475961 26.124552951319174 H 0.0 **** 0.06
20999 H 97.6048629744796 105.27056888092298 27.63309220805671 H 0.0 **** 0.06
21000 H 99.25485048770366 105.88456677983969 27.371033535307248 H 0.0 **** 0.06
21001 C 55.73291835676041 50.93736005959511 52.640300270538994 C 0.0 **** -0.24
21002 H 54.89309458980036 50.732341928715016 53.30519765759167 H 0.0 **** 0.06
21003 H 55.81739269132313 52.01291228598177 52.48380945591196 H 0.0 **** 0.06
21004 H 55.56757123768597 50.44251753356707 51.68342668757316 H 0.0 **** 0.06
21005 H 56.65186142364926 50.561942152192785 53.09045568214622 H 0.0 **** 0.06
21006 C 63.973322926273184 60.16570876547411 76.33751258828318 C 0.0 **** -0.24
21007 H 63.23708716264552 59.39703338127998 76.57181773680527 H 0.0 **** 0.06
21008 H 64.88423296639412 59.69408776118564 75.96706629605632 H 0.0 **** 0.06
21009 H 64.2009188074832 60.73780996554649 77.23744882979159 H 0.0 **** 0.06
21010 H 63.57278056193623 60.83275171199767 75.57501647700619 H 0.0 **** 0.06
21011 C 62.30020509736195 69.2106844508557 62.09587668081383 C 0.0 **** -0.24
21012 H 62.910045341713214 68.34186974019588 61.850243442886836 H 0.0 **** 0.06
21013 H 62.422212021863544 69.9708442516818 61.324125903632876 H 0.0 **** 0.06
21014 H 62.61606802525303 69.61508181115096 63.05815330818518 H 0.0 **** 0.06
21015 H 61.252535134461866 68.91552977309453 62.153141187059134 H 0.0 **** 0.06
21016 C 71.53678875943895 98.1726680657847 16.664694022910126 C 0.0 **** -0.24
21017 H 71.40030490689148 97.09737374657513 16.780905737844847 H 0.0 **** 0.06
21018 H 70.5698061422986 98.64319002394689 16.48290943279021 H 0.0 **** 0.06
21019 H 72.19860013597345 98.36626235456015 15.820611794147595 H 0.0 **** 0.06
21020 H 71.97625780464307 98.58366355393281 17.573259101775406 H 0.0 **** 0.06
21021 C 67.95838240524728 21.011940358147164 60.12503536188808 C 0.0 **** -0.24
21022 H 68.48253170113742 21.608912555236405 59.37865169410941 H 0.0 **** 0.06
21023 H 68.56108368424583 20.95436391624465 61.03207893520255 H 0.0 **** 0.06
21024 H 67.79098537786962 20.009300048846526 59.7346773350277 H 0.0 **** 0.06
21025 H 67.00068941282223 21.47816780755541 60.35479158667104 H 0.0 **** 0.06
21026 C 83.74037141790396 29.529131621235678 57.92789879955248 C 0.0 **** -0.24
21027 H 83.2899634526392 30.41899875267592 58.36648170638853 H 0.0 **** 0.06
21028 H 83.08147526685087 29.131927980895398 57.15538988542056 H 0.0 **** 0.06
21029 H 83.8876888680798 28.775991356649058 58.7025666123337 H 0.0 **** 0.06
21030 H 84.70230808339116 29.789556603086027 57.486159563814994 H 0.0 **** 0.06
21031 C 71.77532249536543 13.808534444109 17.830014461374347 C 0.0 **** -0.24
21032 H 71.91325802033481 12.966827327461544 17.151805973942288 H 0.0 **** 0.06
21033 H 72.73133962361396 14.312108928814354 17.981487135348743 H 0.0 **** 0.06
21034 H 71.40047883830502 13.446214635086989 18.787318205021222 H 0.0 **** 0.06
21035 H 71.05984948151146 14.508408856200589 17.40011451993017 H 0.0 **** 0.06
21036 C 13.93465566162925 36.6531830501703 72.00160160285198 C 0.0 **** -0.24
21037 H 12.859507496817344 36.82933381430456 72.02796775147301 H 0.0 **** 0.06
21038 H 14.178686068020198 36.022526977321604 71.14629173031817 H 0.0 **** 0.06
21039 H 14.243478857160369 36.15490563087573 72.92130524002864 H 0.0 **** 0.06
21040 H 14.45677680874013 37.605120034125434 71.91196184272783 H 0.0 **** 0.06
21041 C 91.3621048669521 25.975107389538834 77.81632133192363 C 0.0 **** -0.24
21042 H 90.27251534080557 25.946241429945218 77.7895012519374 H 0.0 **** 0.06
21043 H 91.71393392314464 26.867822288020733 77.29884543053868 H 0.0 **** 0.06
21044 H 91.76179161952044 25.08806081970252 77.32633798949729 H 0.0 **** 0.06
21045 H 91.69804886980346 26.000123621468248 78.85287170186223 H 0.0 **** 0.06
21046 C 54.22549524630325 67.8197674113216 102.70723098622005 C 0.0 **** -0.24
21047 H 55.21862943878987 67.81748686859112 102.25884153265605 H 0.0 **** 0.06
21048 H 53.79737257779197 66.81896073027417 102.64709071779095 H 0.0 **** 0.06
21049 H 53.5867695870939 68.52132259428708 102.16942917868295 H 0.0 **** 0.06
21050 H 54.2985521169435 68.12194090620972 103.75129164869116 H 0.0 **** 0.06
21051 C 7.319669051708473 47.7070107889474 85.14186321089005 C 0.0 **** -0.24
21052 H 6.821387466214844 47.45513071517604 86.07833092679022 H 0.0 **** 0.06
21053 H 6.58203767153131 48.058320423019495 84.42090737912821 H 0.0 **** 0.06
21054 H 7.82103565638883 46.822722140744816 84.74821744743704 H 0.0 **** 0.06
21055 H 8.054547400157617 48.4916890218085 85.32168742284091 H 0.0 **** 0.06
21056 C 7.759741659438376 34.800001384584135 101.93565066732965 C 0.0 **** -0.24
21057 H 7.348671946569297 35.809708654706796 101.94860483739004 H 0.0 **** 0.06
21058 H 6.9696986245733825 34.08418724534588 102.16402539163232 H 0.0 **** 0.06
21059 H 8.550151720282344 34.719507459591426 102.68114746283472 H 0.0 **** 0.06
21060 H 8.16853157429091 34.58645667158183 100.94825900131421 H 0.0 **** 0.06
21061 C 39.2185994119784 27.498361949316944 89.3282867326547 C 0.0 **** -0.24
21062 H 38.5843702193518 27.62870562013626 90.20471224867714 H 0.0 **** 0.06
21063 H 39.461941305710184 28.47487694734724 88.90875356411112 H 0.0 **** 0.06
21064 H 38.691558256088456 26.90289327349757 88.58365764626708 H 0.0 **** 0.06
21065 H 40.1377975579818 26.988620835086152 89.61731551652846 H 0.0 **** 0.06
21066 C 70.48310502289632 87.59691249558506 103.04853526302568 C 0.0 **** -0.24
21067 H 71.16329226987409 86.98578520483596 103.64238174208481 H 0.0 **** 0.06
21068 H 70.46233672011272 87.2245300867474 102.02440984389258 H 0.0 **** 0.06
21069 H 70.82714166641614 88.63095977863335 103.05225604260522 H 0.0 **** 0.06
21070 H 69.48207455787553 87.54497568504146 103.47469175217864 H 0.0 **** 0.06
21071 C 32.06749874950704 43.88720454703136 14.790027839688833 C 0.0 **** -0.24
21072 H 32.23035479645587 42.873260253561725 15.155808861375633 H 0.0 **** 0.06
21073 H 31.050841446580392 43.97642420251506 14.40607382169226 H 0.0 **** 0.06
21074 H 32.77782520626539 44.1042379811779 13.992332615436979 H 0.0 **** 0.06
21075 H 32.21152941669926 44.59516517596418 15.606682489180642 H 0.0 **** 0.06
21076 C 32.754761745815216 55.83736921816575 34.16649389330203 C 0.0 **** -0.24
21077 H 33.40633537118164 55.00384471817631 34.42954636346707 H 0.0 **** 0.06
21078 H 32.01674331751107 55.50389142177562 33.43583302569397 H 0.0 **** 0.06
21079 H 33.35050001416019 56.644468410516026 33.74054829249178 H 0.0 **** 0.06
21080 H 32.24500288154704 56.19530459174143 35.061002715358256 H 0.0 **** 0.06
21081 C 107.93195091511807 3.3697761151867667 12.99960177114944 C 0.0 **** -0.24
21082 H 107.8281284318595 2.3395583531366526 13.34136800580406 H 0.0 **** 0.06
21083 H 108.00290656410668 3.387197570538973 11.912487423346608 H 0.0 **** 0.06
21084 H 108.83351839052423 3.8060140455499436 13.43032725907931 H 0.0 **** 0.06
21085 H 107.06303682577546 3.9465596357564436 13.317208386289746 H 0.0 **** 0.06
21086 C 75.75419284242079 46.63958145181988 78.53040661254107 C 0.0 **** -0.24
21087 H 75.58996152038675 47.56519795303842 79.0820070329811 H 0.0 **** 0.06
21088 H 76.7636687157414 46.63501911986339 78.11910682412423 H 0.0 **** 0.06
21089 H 75.03024622024432 46.56788887929173 77.71842487079573 H 0.0 **** 0.06
21090 H 75.63152029799863 45.78995084067827 79.20189236852207 H 0.0 **** 0.06
21091 C 14.230406449128864 96.03961380215065 94.00826792840056 C 0.0 **** -0.24
21092 H 13.514535154249828 95.84714741593105 93.21040030539024 H 0.0 **** 0.06
21093 H 13.779438188547743 95.79307697975955 94.96939595183784 H 0.0 **** 0.06
21094 H 14.510860961965008 97.09372001988392 93.99881808407685 H 0.0 **** 0.06
21095 H 15.118878725382274 95.42661144273255 93.85493817632494 H 0.0 **** 0.06
21096 C 49.811436019268996 52.57561502836466 74.47806464910742 C 0.0 **** -0.24
21097 H 49.20466245815774 53.47370268437331 74.3625429198966 H 0.0 **** 0.06
21098 H 49.546615085996265 52.07657347719646 75.41088367086506 H 0.0 **** 0.06
21099 H 50.86577100959596 52.84962881380357 74.49937169460172 H 0.0 **** 0.06
21100 H 49.62741990833998 51.90316285361397 73.64046212785783 H 0.0 **** 0.06
21101 C 70.14126521814359 90.59543308695635 4.951913563609395 C 0.0 **** -0.24
21102 H 69.42912875651642 90.99419342370248 4.230082785744457 H 0.0 **** 0.06
21103 H 70.06432997682128 89.5079858659881 4.973510193582257 H 0.0 **** 0.06
21104 H 69.91799504389975 90.99551541714828 5.941115483446254 H 0.0 **** 0.06
21105 H 71.15177831669985 90.88242113660777 4.662738959438343 H 0.0 **** 0.06
21106 C 49.03887148816244 15.63515931474069 9.845226366302228 C 0.0 **** -0.24
21107 H 48.20898336043058 16.21159985931689 9.436044409868913 H 0.0 **** 0.06
21108 H 49.82462629236463 16.31472835395479 10.175031106508982 H 0.0 **** 0.06
21109 H 49.43142739366772 14.969507146741705 9.076138630946332 H 0.0 **** 0.06
21110 H 48.68900644070658 15.045302453341776 10.692057614615862 H 0.0 **** 0.06
21111 C 45.76596900686466 54.90802445562065 32.97256079551986 C 0.0 **** -0.24
21112 H 44.68601407537167 54.785162458044056 32.88615375559214 H 0.0 **** 0.06
21113 H 46.267481850015876 54.094509214244056 32.44822245915392 H 0.0 **** 0.06
21114 H 46.049404408514 54.89200689365799 34.02466328333527 H 0.0 **** 0.06
21115 H 46.05879421317754 55.86009363200429 32.53157159669057 H 0.0 **** 0.06
21116 C 0.14609304690488578 37.84871519299756 3.2253567093079027 C 0.0 **** -0.24
21117 H 0.31352520707887077 38.87311535956039 2.8908844485883947 H 0.0 **** 0.06
21118 H -0.35012547637149094 37.8604250437794 4.196699598197213 H 0.0 **** 0.06
21119 H 1.102993416838661 37.33454761218442 3.3115495869322586 H 0.0 **** 0.06
21120 H -0.4824036663377749 37.32916926958137 2.50196070092656 H 0.0 **** 0.06
21121 C 52.864262454468076 25.670313011326925 95.14771654751559 C 0.0 **** -0.24
21122 H 52.25958109675568 25.599827345240612 96.05201578053635 H 0.0 **** 0.06
21123 H 53.83034230954587 25.194078710878358 95.31776216998202 H 0.0 **** 0.06
21124 H 53.01504542768697 26.719013162524817 94.89166118303774 H 0.0 **** 0.06
21125 H 52.35106305286371 25.167205879929497 94.3281255167717 H 0.0 **** 0.06
21126 C 57.59556820269921 0.4425628671841224 34.19143177374826 C 0.0 **** -0.24
21127 H 58.37691509726034 -0.31709721727531814 34.206346036086586 H 0.0 **** 0.06
21128 H 58.00101733439243 1.3890836277470697 34.55041417875259 H 0.0 **** 0.06
21129 H 56.774537776106285 0.13050670254662577 34.83795394610854 H 0.0 **** 0.06
21130 H 57.22889928194206 0.566581850457581 33.17296232975923 H 0.0 **** 0.06
21131 C 85.96243300506814 91.3860787958297 57.02321989814927 C 0.0 **** -0.24
21132 H 84.88024011317901 91.25416828631514 57.04526692526624 H 0.0 **** 0.06
21133 H 86.38541770070475 90.7798624151101 56.22157561470693 H 0.0 **** 0.06
21134 H 86.38575253695404 91.07419374448541 57.97744633792281 H 0.0 **** 0.06
21135 H 86.19636158503312 92.43551661742295 56.84723840088354 H 0.0 **** 0.06
21136 C 41.40128674930062 33.130671656000914 74.72915842601856 C 0.0 **** -0.24
21137 H 42.28456775386627 33.728516162851804 74.95402611872066 H 0.0 **** 0.06
21138 H 40.532911653920145 33.783999423709304 74.64558585392052 H 0.0 **** 0.06
21139 H 41.23887717108568 32.40850626489146 75.52907912445477 H 0.0 **** 0.06
21140 H 41.55097763694956 32.60211309016577 73.78781877741795 H 0.0 **** 0.06
21141 C 65.7799086172489 81.40595706124441 34.788475286316725 C 0.0 **** -0.24
21142 H 65.95837348897888 82.44106172347568 35.082362285565466 H 0.0 **** 0.06
21143 H 65.2987807846664 81.38430874940866 33.81092979113021 H 0.0 **** 0.06
21144 H 65.13225369054621 80.92748198138202 35.52319262126312 H 0.0 **** 0.06
21145 H 66.7292605108592 80.87356576086006 34.73858236164733 H 0.0 **** 0.06
21146 C 51.44080488423779 53.918910670524824 80.94105295240018 C 0.0 **** -0.24
21147 H 51.195944694068885 54.87271329999735 81.40821982473189 H 0.0 **** 0.06
21148 H 52.447640523961354 53.96763334229392 80.5248774867649 H 0.0 **** 0.06
21149 H 50.72746366101617 53.711401076742405 80.14448478297258 H 0.0 **** 0.06
21150 H 51.39387496833814 53.1262402316748 81.68740139318345 H 0.0 **** 0.06
21151 C 27.841366617165747 21.80953650401652 12.289707218811174 C 0.0 **** -0.24
21152 H 28.49147926738928 21.2917803426991 12.995513850498014 H 0.0 **** 0.06
21153 H 26.800166682863306 21.58045792646625 12.519954127675021 H 0.0 **** 0.06
21154 H 28.071554470164386 21.480880696711775 11.27637274127126 H 0.0 **** 0.06
21155 H 28.003349289908016 22.884861194323044 12.367882123599912 H 0.0 **** 0.06
21156 C 51.147252140978935 7.165750352170898 42.655260113177235 C 0.0 **** -0.24
21157 H 51.52602666796494 6.73207565825383 41.72890539769435 H 0.0 **** 0.06
21158 H 51.163299093006174 6.411048218713862 43.44174282917018 H 0.0 **** 0.06
21159 H 50.12538950390595 7.5122434236991875 42.50365495767355 H 0.0 **** 0.06
21160 H 51.7763618121582 8.00704739420211 42.94556367639733 H 0.0 **** 0.06
21161 C 9.303743632033388 2.443560184564724 12.836435377772585 C 0.0 **** -0.24
21162 H 8.789620363989798 1.554412389043157 13.19891742835209 H 0.0 **** 0.06
21163 H 8.571584226622122 3.216577873130408 12.602614654462997 H 0.0 **** 0.06
21164 H 9.87055289991514 2.195692230315869 11.938895627307577 H 0.0 **** 0.06
21165 H 9.98420286446185 2.808407074358807 13.606457384841423 H 0.0 **** 0.06
21166 C 78.31622875579461 66.55321343753704 85.47634504844318 C 0.0 **** -0.24
21167 H 78.6660780913232 67.13625573172513 86.3281401988844 H 0.0 **** 0.06
21168 H 79.09197111404417 65.84723329438788 85.17667057857527 H 0.0 **** 0.06
21169 H 78.09305556148632 67.22257408051004 84.64534809697874 H 0.0 **** 0.06
21170 H 77.4151310677347 66.00671005208238 85.75472225888579 H 0.0 **** 0.06
21171 C 62.88974839595622 54.15795533132308 15.572280181678394 C 0.0 **** -0.24
21172 H 63.33107608609413 55.072587079418554 15.176900015195457 H 0.0 **** 0.06
21173 H 63.5462365231283 53.73636763356376 16.33312904354547 H 0.0 **** 0.06
21174 H 62.76086550929091 53.438149828456346 14.763653489108535 H 0.0 **** 0.06
21175 H 61.91865964664984 54.38474392604712 16.01484491928241 H 0.0 **** 0.06
21176 C 10.37213472953502 46.916260003652276 29.965548781151703 C 0.0 **** -0.24
21177 H 11.021261473828417 47.71408368496107 30.326326696301805 H 0.0 **** 0.06
21178 H 9.74202004565376 46.562789455614805 30.78108042945962 H 0.0 **** 0.06
21179 H 10.983417841780152 46.09311145725265 29.594652130619885 H 0.0 **** 0.06
21180 H 9.745555862162547 47.29459304940232 29.15841072077376 H 0.0 **** 0.06
21181 C 0.9792961308745873 36.083755887886184 83.69328223365824 C 0.0 **** -0.24
21182 H -0.04205204636741655 36.11845783312475 83.31234705961833 H 0.0 **** 0.06
21183 H 1.6060971895820444 36.76148436940099 83.11360352312857 H 0.0 **** 0.06
21184 H 1.3643143561581326 35.06796660831981 83.60623083290108 H 0.0 **** 0.06
21185 H 0.9866257236826357 36.38757280397158 84.73997101866235 H 0.0 **** 0.06
21186 C 25.247857696005013 3.8718044277342916 34.613419330456225 C 0.0 **** -0.24
21187 H 24.84977009668566 4.1787561167958565 33.64671837221937 H 0.0 **** 0.06
21188 H 24.428958420863353 3.7634909498260782 35.32515879863405 H 0.0 **** 0.06
21189 H 25.945652868864045 4.625985012606629 34.975559280616096 H 0.0 **** 0.06
21190 H 25.764997074228177 2.918106615035035 34.50724863804447 H 0.0 **** 0.06
21191 C 69.16411407658953 15.147953337514394 30.467446290982025 C 0.0 **** -0.24
21192 H 69.49201265671672 14.45294709124883 29.694935667394674 H 0.0 **** 0.06
21193 H 68.10408758226663 15.364009659959862 30.33547908739112 H 0.0 **** 0.06
21194 H 69.73624099449205 16.072730627713653 30.390131109073252 H 0.0 **** 0.06
21195 H 69.32535145607201 14.701714164995437 31.44868987181647 H 0.0 **** 0.06
21196 C 78.32546159540529 1.6825596201652502 98.72229250993603 C 0.0 **** -0.24
21197 H 78.45955954340302 1.398149234597156 97.6788020602979 H 0.0 **** 0.06
21198 H 77.35331574508926 1.334387695228287 99.07196756279161 H 0.0 **** 0.06
21199 H 78.37803045897805 2.7677276151880648 98.8136972717695 H 0.0 **** 0.06
21200 H 79.11252657298174 1.2288842067025314 99.3258422395176 H 0.0 **** 0.06
21201 C 27.72774906154389 48.15133066446905 44.467980479329384 C 0.0 **** -0.24
21202 H 26.70317537753821 48.52404419422288 44.4716250257872 H 0.0 **** 0.06
21203 H 28.361648103671534 48.83746046515835 43.90599224039975 H 0.0 **** 0.06
21204 H 27.75325944909033 47.16632999320642 43.9998236066293 H 0.0 **** 0.06
21205 H 28.090639024529878 48.07637125083677 45.49287452519299 H 0.0 **** 0.06
21206 C 55.85579642334576 101.71027983283739 98.61977753669873 C 0.0 **** -0.24
21207 H 55.132790271213445 101.86013273189076 97.818613992753 H 0.0 **** 0.06
21208 H 56.100346528408444 102.67206038956142 99.07349264340147 H 0.0 **** 0.06
21209 H 56.7608115570646 101.260271643541 98.21272464272623 H 0.0 **** 0.06
21210 H 55.42933383935786 101.05059599190169 99.37576945550536 H 0.0 **** 0.06
21211 C 55.24009232350424 67.4251099001505 54.62425147635286 C 0.0 **** -0.24
21212 H 54.83703889467371 66.86339871187063 55.467540506053254 H 0.0 **** 0.06
21213 H 54.41929573467701 67.82927480751206 54.03226877314243 H 0.0 **** 0.06
21214 H 55.845869876706125 66.76376153345528 54.004094400383195 H 0.0 **** 0.06
21215 H 55.858774671717654 68.2420928318641 54.9955463779523 H 0.0 **** 0.06
21216 C 22.14302344887101 3.7485047536179135 32.550588180572696 C 0.0 **** -0.24
21217 H 22.587392512896823 4.726746175256258 32.73360651302059 H 0.0 **** 0.06
21218 H 22.68606605065847 3.246611146212649 31.74963099455207 H 0.0 **** 0.06
21219 H 21.09909378113162 3.873303604538931 32.260104032421964 H 0.0 **** 0.06
21220 H 22.197942917812313 3.1498584598814947 33.45945081963521 H 0.0 **** 0.06
21221 C 53.61134150980445 18.10065213236402 50.54020155464457 C 0.0 **** -0.24
21222 H 53.36705974620252 17.242069778567895 51.16495316764954 H 0.0 **** 0.06
21223 H 53.12438472796336 18.990612333036808 50.93992500705829 H 0.0 **** 0.06
21224 H 53.263549188108655 17.92158371529773 49.52351438755494 H 0.0 **** 0.06
21225 H 54.69190174881492 18.24923303711084 50.53378061417337 H 0.0 **** 0.06
21226 C 91.41597207520789 8.11762669300883 20.134120017052595 C 0.0 **** -0.24
21227 H 92.2290372397562 8.817920926544119 19.94379695341206 H 0.0 **** 0.06
21228 H 91.82978931704928 7.143510221774221 20.398128237819293 H 0.0 **** 0.06
21229 H 90.80246566021466 8.02170859370959 19.239278482147256 H 0.0 **** 0.06
21230 H 90.80390352182631 8.486429943168247 20.957602952474844 H 0.0 **** 0.06
21231 C 77.256623887156 67.85397220751778 81.82468238023547 C 0.0 **** -0.24
21232 H 78.10791296449727 68.46713801770872 82.11853847691384 H 0.0 **** 0.06
21233 H 77.24831503083922 66.93674908495063 82.4135640083785 H 0.0 **** 0.06
21234 H 77.33541490041024 67.60559384232639 80.76650989722506 H 0.0 **** 0.06
21235 H 76.33344926986622 68.40656736016234 82.00004514594434 H 0.0 **** 0.06
21236 C 0.5806126827602895 16.56208171887218 12.641890880205494 C 0.0 **** -0.24
21237 H -0.2575127399594379 17.252807281281477 12.546644554368669 H 0.0 **** 0.06
21238 H 0.4076458242735015 15.895913788170603 13.487533033984818 H 0.0 **** 0.06
21239 H 1.4990714718926341 17.125669965084924 12.806577295845585 H 0.0 **** 0.06
21240 H 0.6737711280146783 15.974033951246426 11.728980052350266 H 0.0 **** 0.06
21241 C 94.14930340903051 24.835354334333374 83.17960255337994 C 0.0 **** -0.24
21242 H 93.75958091733241 25.32328998579677 82.28578876922383 H 0.0 **** 0.06
21243 H 93.38380821347181 24.182378056929444 83.59951204232878 H 0.0 **** 0.06
21244 H 94.42645529928703 25.59056817303643 83.91410012234635 H 0.0 **** 0.06
21245 H 95.0271434396838 24.244136674120853 82.9170449968478 H 0.0 **** 0.06
21246 C 54.86682499530343 77.83603448719344 39.12036244702735 C 0.0 **** -0.24
21247 H 54.84161375502462 78.76230769975125 39.69517566733526 H 0.0 **** 0.06
21248 H 55.5346626874028 77.95660154944774 38.26641611009825 H 0.0 **** 0.06
21249 H 53.86302040389964 77.60065188959877 38.76712566580244 H 0.0 **** 0.06
21250 H 55.2284937917162 77.02547109779431 39.753711938802965 H 0.0 **** 0.06
21251 C 49.08341830722966 6.422904745721937 53.187349434609104 C 0.0 **** -0.24
21252 H 49.1968993485853 6.796778723089048 52.16917743212633 H 0.0 **** 0.06
21253 H 49.489473104560794 7.152535530367942 53.889014850595146 H 0.0 **** 0.06
21254 H 49.62050996489801 5.48027559801929 53.29066779768459 H 0.0 **** 0.06
21255 H 48.02608024447643 6.264265175078293 53.39983373943329 H 0.0 **** 0.06
21256 C 108.05317309662423 53.67650198644748 84.57699298451712 C 0.0 **** -0.24
21257 H 107.6179170258578 54.2965389698212 83.79339158926615 H 0.0 **** 0.06
21258 H 108.12802555507125 52.64696193304434 84.22622628779459 H 0.0 **** 0.06
21259 H 107.4199795710587 53.714128477644465 85.46339868610531 H 0.0 **** 0.06
21260 H 109.046522970339 54.05008748821592 84.82481902436825 H 0.0 **** 0.06
21261 C 13.905905344859718 23.735839236905235 5.1858589985341865 C 0.0 **** -0.24
21262 H 14.498168333778949 22.819872243143635 5.189595973564636 H 0.0 **** 0.06
21263 H 14.554225873805706 24.585177334221953 4.967727823180908 H 0.0 **** 0.06
21264 H 13.443003106867081 23.872239893305164 6.162523309162424 H 0.0 **** 0.06
21265 H 13.131974709831582 23.663984737271477 4.422817007366746 H 0.0 **** 0.06
21266 C 60.41539440694223 29.91095599603119 67.92985734121527 C 0.0 **** -0.24
21267 H 59.97848262128777 30.75040389610365 67.38694087622116 H 0.0 **** 0.06
21268 H 60.61108205474204 29.09337973867781 67.23615332387192 H 0.0 **** 0.06
21269 H 59.7218235663387 29.5759535817719 68.70026286423416 H 0.0 **** 0.06
21270 H 61.34979241581236 30.226110860081434 68.39311491845498 H 0.0 **** 0.06
21271 C 36.27154215475601 43.42632823121454 13.276931847732214 C 0.0 **** -0.24
21272 H 36.87719574725533 42.71609812823265 13.839712251818014 H 0.0 **** 0.06
21273 H 35.48776925383054 42.8902827495353 12.741395516946909 H 0.0 **** 0.06
21274 H 36.90290189087349 43.95596021451924 12.562814379753206 H 0.0 **** 0.06
21275 H 35.81948556579458 44.14230304489795 13.963416207704654 H 0.0 **** 0.06
21276 C 66.22896679283912 12.623633903779734 28.673431014404144 C 0.0 **** -0.24
21277 H 66.138854023925 11.755882497748019 29.32668979736583 H 0.0 **** 0.06
21278 H 66.80235540951338 12.351236620199586 27.785954141051235 H 0.0 **** 0.06
21279 H 66.74067336599711 13.426353834868166 29.203495078825227 H 0.0 **** 0.06
21280 H 65.23597640323248 12.959018335912674 28.375165694488857 H 0.0 **** 0.06
21281 C 82.4903417030034 94.95502576450502 1.088098856736849 C 0.0 **** -0.24
21282 H 82.0837210825372 94.5040940351978 0.18355585103138594 H 0.0 **** 0.06
21283 H 82.77830453251077 94.16931164677445 1.7869383406484616 H 0.0 **** 0.06
21284 H 81.73372299044432 95.5907132439025 1.5481960458946276 H 0.0 **** 0.06
21285 H 83.36492508399873 95.55405857231138 0.8346063265579033 H 0.0 **** 0.06
21286 C 32.89061819369758 53.97652760008111 73.50038658767545 C 0.0 **** -0.24
21287 H 33.197271676851244 53.36969549665986 72.64929068785716 H 0.0 **** 0.06
21288 H 32.50427917181318 54.93210455839284 73.1454461512742 H 0.0 **** 0.06
21289 H 33.74783427419126 54.14967912519825 74.15093020599443 H 0.0 **** 0.06
21290 H 32.112416441320974 53.45459593521258 74.05747567017397 H 0.0 **** 0.06
21291 C 91.68490368229612 59.80511588020761 76.21836965664318 C 0.0 **** -0.24
21292 H 91.19764816753764 58.87609605173782 75.92261286752944 H 0.0 **** 0.06
21293 H 92.73142791251365 59.608475494009554 76.45190867519815 H 0.0 **** 0.06
21294 H 91.1860837968025 60.21212742243637 77.098378309395 H 0.0 **** 0.06
21295 H 91.62336639891623 60.52400093484124 75.40145026266896 H 0.0 **** 0.06
21296 C 70.98019514803639 76.5753747242935 31.141031273083712 C 0.0 **** -0.24
21297 H 71.09747875501782 77.37013048438878 31.878906457200657 H 0.0 **** 0.06
21298 H 71.9564470803054 76.14602279463517 30.912293367827345 H 0.0 **** 0.06
21299 H 70.5413714129102 76.98615245427959 30.232335946627458 H 0.0 **** 0.06
21300 H 70.32763416821408 75.80047599302821 31.543369428199497 H 0.0 **** 0.06
21301 C 58.21926836725864 24.876476961174546 76.41704774790077 C 0.0 **** -0.24
21302 H 57.24421285229553 25.23207408734075 76.0834697098175 H 0.0 **** 0.06
21303 H 58.53277184886864 24.037539039820842 75.79494273693132 H 0.0 **** 0.06
21304 H 58.15206009753355 24.553342384831183 77.45600009035314 H 0.0 **** 0.06
21305 H 58.94802867033687 25.682952332705753 76.33377845450127 H 0.0 **** 0.06
21306 C 11.76808326752834 76.68428469121062 74.25103931545095 C 0.0 **** -0.24
21307 H 12.783455917572837 76.94362301542986 73.95173701933535 H 0.0 **** 0.06
21308 H 11.057564808724237 77.17375014383327 73.58380320375596 H 0.0 **** 0.06
21309 H 11.595263754712434 77.01741721169381 75.27439067377838 H 0.0 **** 0.06
21310 H 11.637727131998716 75.60387263725457 74.1932992871707 H 0.0 **** 0.06
21311 C 101.23210268750879 85.94242364046634 10.44354810514818 C 0.0 **** -0.24
21312 H 100.19391024878132 86.23851235181091 10.29285701606003 H 0.0 **** 0.06
21313 H 101.45547544005859 85.93574353443036 11.510948644526998 H 0.0 **** 0.06
21314 H 101.88835339495412 86.65140162247633 9.939427027283566 H 0.0 **** 0.06
21315 H 101.38834916620453 84.94527147856458 10.032715489805453 H 0.0 **** 0.06
21316 C 69.36278540066104 24.602030169039974 0.2549234771286706 C 0.0 **** -0.24
21317 H 70.195209477535 24.946506887669678 0.8691016637262408 H 0.0 **** 0.06
21318 H 69.59948876104869 23.621554735995822 -0.1597057137697675 H 0.0 **** 0.06
21319 H 69.19299432992045 25.308363322326063 -0.5569122625999796 H 0.0 **** 0.06
21320 H 68.46431159954955 24.52967431806451 0.8676226793411672 H 0.0 **** 0.06
21321 C 62.42078059441985 105.34354225745794 60.26376616668628 C 0.0 **** -0.24
21322 H 62.11988545079333 104.68171747837506 61.07591266770669 H 0.0 **** 0.06
21323 H 63.49747081334863 105.50997920528818 60.31169147872643 H 0.0 **** 0.06
21324 H 61.9002386625703 106.2957402176967 60.35993240349018 H 0.0 **** 0.06
21325 H 62.16655380140435 104.88408869043202 59.30850754830422 H 0.0 **** 0.06
21326 C 27.64804466520968 71.74394408879492 67.59678612615394 C 0.0 **** -0.24
21327 H 26.959406598193738 71.7328293348651 68.44191035485235 H 0.0 **** 0.06
21328 H 28.223223615239988 70.81744417543928 67.58499578192254 H 0.0 **** 0.06
21329 H 28.32647634075893 72.5919089076884 67.69202794916876 H 0.0 **** 0.06
21330 H 27.08330922080617 71.83268335138376 66.66854903337418 H 0.0 **** 0.06
21331 C 91.78027911849846 14.915297131122031 83.7813554992477 C 0.0 **** -0.24
21332 H 90.73222077252973 15.211689525579857 83.72452078481041 H 0.0 **** 0.06
21333 H 92.23957364217006 15.012217894236215 82.79679476017449 H 0.0 **** 0.06
21334 H 91.84661247660537 13.879268359169174 84.1132532593685 H 0.0 **** 0.06
21335 H 92.30098414657384 15.558650893861738 84.49006844103927 H 0.0 **** 0.06
21336 C 50.753046182977236 101.1876585278056 10.807529844401294 C 0.0 **** -0.24
21337 H 50.93689318440758 101.96526768263921 11.54776565993247 H 0.0 **** 0.06
21338 H 51.39108013953105 100.32888425843295 11.01714212567303 H 0.0 **** 0.06
21339 H 50.9758863384843 101.5725366932431 9.81256054393418 H 0.0 **** 0.06
21340 H 49.70699724159788 100.88283555657048 10.852579643679675 H 0.0 **** 0.06
21341 C 54.37210578322339 13.970122258939398 6.906270889750118 C 0.0 **** -0.24
21342 H 54.2796363751097 14.511052974379027 7.848844126813077 H 0.0 **** 0.06
21343 H 54.565038937355666 12.916944961937816 7.111195893549308 H 0.0 **** 0.06
21344 H 55.19721951731674 14.385823543112735 6.329219282461281 H 0.0 **** 0.06
21345 H 53.4465751009584 14.067283115771716 6.339514729070828 H 0.0 **** 0.06
21346 C 21.236645406373107 69.73524432863206 30.00681034459427 C 0.0 **** -0.24
21347 H 20.85448794507191 69.47197065370301 29.02107181057829 H 0.0 **** 0.06
21348 H 20.798091778898154 70.68085339705686 30.32570542717957 H 0.0 **** 0.06
21349 H 22.321250880895704 69.83490797086591 29.96048536757874 H 0.0 **** 0.06
21350 H 20.973127781007488 68.95323003341224 30.719052561234207 H 0.0 **** 0.06
21351 C 102.72608583612273 42.63399887290724 54.236312110417146 C 0.0 **** -0.24
21352 H 102.69916213558014 42.96640944291487 55.2740414540784 H 0.0 **** 0.06
21353 H 101.71425678196118 42.39899484776338 53.90348930387796 H 0.0 **** 0.06
21354 H 103.35094772479238 41.74454706772984 54.15621239596885 H 0.0 **** 0.06
21355 H 103.13905711053826 43.42626242038521 53.61255733387378 H 0.0 **** 0.06
21356 C 76.1566495843019 42.540781378398606 4.0480854759036475 C 0.0 **** -0.24
21357 H 75.39709168706162 43.12891379586313 4.563046560993882 H 0.0 **** 0.06
21358 H 75.80892759704048 41.51352424427509 3.9403077068087953 H 0.0 **** 0.06
21359 H 77.08074011751796 42.55275664098431 4.626835153382046 H 0.0 **** 0.06
21360 H 76.33983893558741 42.96793083247201 3.062152482429738 H 0.0 **** 0.06
21361 C 73.76809530404465 43.60252109582814 24.97808048241609 C 0.0 **** -0.24
21362 H 73.3731656404166 42.66724910564605 24.58050311684616 H 0.0 **** 0.06
21363 H 74.74940491765399 43.79546693503693 24.543127298683203 H 0.0 **** 0.06
21364 H 73.85870382244347 43.52730978043843 26.060980819630515 H 0.0 **** 0.06
21365 H 73.09099286597535 44.41862563455729 24.725077412289693 H 0.0 **** 0.06
21366 C 108.7519108682608 105.99376114776982 29.67691713763942 C 0.0 **** -0.24
21367 H 108.81728186486494 105.44067626669386 28.740152177386598 H 0.0 **** 0.06
21368 H 109.518538332769 105.6352743938869 30.364121954290873 H 0.0 **** 0.06
21369 H 107.76744365255584 105.84210618769683 30.120318728952547 H 0.0 **** 0.06
21370 H 108.90374050095326 107.05511143461291 29.483342502526988 H 0.0 **** 0.06
21371 C 8.993501338002446 81.34767852880579 11.528260905176523 C 0.0 **** -0.24
21372 H 7.943211380414027 81.62980550161167 11.601029266786483 H 0.0 **** 0.06
21373 H 9.086693528578735 80.26602861226763 11.622268918650576 H 0.0 **** 0.06
21374 H 9.556398054170018 81.8318974646183 12.326779668007674 H 0.0 **** 0.06
21375 H 9.388382259452158 81.66394070345773 10.562178498840979 H 0.0 **** 0.06
21376 C 46.42161000459618 84.07861362657246 53.306916095694454 C 0.0 **** -0.24
21377 H 46.123709570907266 83.47568606643668 52.44879105874459 H 0.0 **** 0.06
21378 H 45.53910005408864 84.33554961803407 53.893076451570245 H 0.0 **** 0.06
21379 H 46.90557798787279 84.99024645374004 52.9586728371276 H 0.0 **** 0.06
21380 H 47.11685112206101 83.51109050293894 53.92512005240805 H 0.0 **** 0.06
21381 C 23.99816259633111 34.107554167341334 7.532136809774869 C 0.0 **** -0.24
21382 H 23.810013630306752 33.052547391926794 7.334507096075896 H 0.0 **** 0.06
21383 H 23.151759124738252 34.531499967527566 8.073638469109113 H 0.0 **** 0.06
21384 H 24.1286753478795 34.636668168554934 6.589216580268243 H 0.0 **** 0.06
21385 H 24.90229639678855 34.207926453869135 8.134578056282493 H 0.0 **** 0.06
21386 C 21.57823857032301 100.9851219304698 32.903136400870125 C 0.0 **** -0.24
21387 H 22.195069972367563 100.5275706033064 32.130542328875315 H 0.0 **** 0.06
21388 H 20.62528732434923 100.45945984768929 32.96628049621491 H 0.0 **** 0.06
21389 H 21.400005042940904 102.03098456824546 32.65250114521086 H 0.0 **** 0.06
21390 H 22.09235173847688 100.92357868293789 33.86237357120527 H 0.0 **** 0.06
21391 C 48.82389567110158 62.08781942200363 58.80767806037767 C 0.0 **** -0.24
21392 H 48.84389936804811 61.11970642693166 58.307158383239226 H 0.0 **** 0.06
21393 H 49.35545656692884 62.016681956605396 59.7566155389527 H 0.0 **** 0.06
21394 H 47.78922005339362 62.37942441477486 58.991506297955794 H 0.0 **** 0.06
21395 H 49.30534963503629 62.83299679508963 58.175835882406375 H 0.0 **** 0.06
21396 C 12.047245340871626 74.30037225994198 7.171217442443606 C 0.0 **** -0.24
21397 H 12.203688617433812 75.14825788580197 7.838207200840344 H 0.0 **** 0.06
21398 H 12.563807329083275 74.4807053634035 6.2280289194056735 H 0.0 **** 0.06
21399 H 10.980981736780805 74.17538922524611 6.9845600151701035 H 0.0 **** 0.06
21400 H 12.442784958358203 73.39583051668626 7.635117858117624 H 0.0 **** 0.06
21401 C 104.93341781488627 37.96109642602397 70.2127752136114 C 0.0 **** -0.24
21402 H 105.2024544218803 38.14272830204072 69.17239787251413 H 0.0 **** 0.06
21403 H 104.41707793182874 38.834905297185344 70.61218493204507 H 0.0 **** 0.06
21404 H 105.835293467942 37.77363988659067 70.79426050436223 H 0.0 **** 0.06
21405 H 104.27672474196424 37.09321235814963 70.27038858400735 H 0.0 **** 0.06
21406 C 70.69520046407277 70.03956650583561 30.783138092722858 C 0.0 **** -0.24
21407 H 69.98597060901761 70.69552501126537 30.277751760320164 H 0.0 **** 0.06
21408 H 70.9979939637343 70.49186920611481 31.727489311894658 H 0.0 **** 0.06
21409 H 71.57182945911921 69.89631164528865 30.15081970045926 H 0.0 **** 0.06
21410 H 70.22401378896751 69.07602330781617 30.975123628301375 H 0.0 **** 0.06
21411 C 86.16662169047021 52.054046173960046 43.47611374758378 C 0.0 **** -0.24
21412 H 85.16066256039414 52.44356352215172 43.32070360023948 H 0.0 **** 0.06
21413 H 86.11049235580066 50.99401799816775 43.7265287985968 H 0.0 **** 0.06
21414 H 86.64324266581747 52.596179565336996 44.29420531122054 H 0.0 **** 0.06
21415 H 86.75126758434965 52.18314027595255 42.56562721655172 H 0.0 **** 0.06
21416 C 101.7330773128255 0.17901941834831803 49.18686257930045 C 0.0 **** -0.24
21417 H 102.15982367375503 1.029835689439068 49.718023648200955 H 0.0 **** 0.06
21418 H 100.67305770809573 0.09565450189771241 49.42727390559938 H 0.0 **** 0.06
21419 H 102.24719441163954 -0.7334620628366224 49.49006227669952 H 0.0 **** 0.06
21420 H 101.85200683664064 0.3247769714287756 48.11328195326615 H 0.0 **** 0.06
21421 C 30.72262137120765 38.0511408305635 56.50158856312887 C 0.0 **** -0.24
21422 H 30.858986988685217 38.650023555155116 55.60099499502833 H 0.0 **** 0.06
21423 H 31.48819441028931 37.27627010783459 56.54120103453533 H 0.0 **** 0.06
21424 H 29.736656765883993 37.58744204807519 56.482798420977865 H 0.0 **** 0.06
21425 H 30.80693062626949 38.69142960995953 57.38011182997302 H 0.0 **** 0.06
21426 C 74.71945777058767 35.87248201788438 2.5359627767483914 C 0.0 **** -0.24
21427 H 75.21952223952911 35.603869009805265 1.6057959053223385 H 0.0 **** 0.06
21428 H 75.10007860632652 35.248602673899626 3.3457203276412883 H 0.0 **** 0.06
21429 H 73.64580523840772 35.715332415889605 2.4298254354423534 H 0.0 **** 0.06
21430 H 74.91288248615933 36.92078829431114 2.7625917126404147 H 0.0 **** 0.06
21431 C 78.14346305762768 40.26115953581893 17.312850377237908 C 0.0 **** -0.24
21432 H 78.90436210520582 39.552808273325525 17.643652574228767 H 0.0 **** 0.06
21433 H 78.55652841401891 41.269682696764676 17.328176899693034 H 0.0 **** 0.06
21434 H 77.2848352437689 40.20960298376593 17.982457031162 H 0.0 **** 0.06
21435 H 77.83045871315124 40.011248637261275 16.29973852603416 H 0.0 **** 0.06
21436 C 27.660542664371242 66.37292456075602 3.6265956093503267 C 0.0 **** -0.24
21437 H 27.91846009556472 67.2248260381838 4.255934425721097 H 0.0 **** 0.06
21438 H 28.379110325573507 65.56901056609811 3.7906435885183676 H 0.0 **** 0.06
21439 H 27.683606898244697 66.67426170849217 2.580006980732345 H 0.0 **** 0.06
21440 H 26.660383800604258 66.02303196773698 3.8825004553768157 H 0.0 **** 0.06
21441 C 65.48839576847274 62.68302601070762 108.75184474715766 C 0.0 **** -0.24
21442 H 64.73498319367923 62.8216689279723 109.52740164950413 H 0.0 **** 0.06
21443 H 66.23838365893198 61.97057615491133 109.09651164155895 H 0.0 **** 0.06
21444 H 65.96738338311434 63.63827183701321 108.536103796525 H 0.0 **** 0.06
21445 H 65.01366348355748 62.30338371776098 107.84764908294324 H 0.0 **** 0.06
21446 C 40.64801727482768 53.35332183476063 25.733988745665652 C 0.0 **** -0.24
21447 H 39.57600615774726 53.16938030819994 25.65326938552403 H 0.0 **** 0.06
21448 H 40.838275948289265 54.02304240003416 26.572929081369686 H 0.0 **** 0.06
21449 H 41.008224414541814 53.811910022647396 24.813083997864823 H 0.0 **** 0.06
21450 H 41.16662356034948 52.4093172488645 25.897153255443175 H 0.0 **** 0.06
21451 C 4.008769907648585 97.54186796752977 77.44197652497849 C 0.0 **** -0.24
21452 H 4.693004561280475 96.94368861071531 76.84095554734978 H 0.0 **** 0.06
21453 H 4.020072693057713 98.5729805110267 77.08708063749191 H 0.0 **** 0.06
21454 H 4.323356920261347 97.5138992290494 78.48498208583973 H 0.0 **** 0.06
21455 H 3.0005328313424826 97.13809410405376 77.35503125182211 H 0.0 **** 0.06
21456 C 40.900471648718906 47.93548217191358 34.42831191575744 C 0.0 **** -0.24
21457 H 39.923516774676244 47.462247632318565 34.3325304908339 H 0.0 **** 0.06
21458 H 41.62916926057102 47.38771182646957 33.830573415724174 H 0.0 **** 0.06
21459 H 41.20629847704723 47.92592903309628 35.47466729070895 H 0.0 **** 0.06
21460 H 40.84081319797258 48.964592557320884 34.0770706269629 H 0.0 **** 0.06
21461 C 39.401139293159474 27.855695581772608 9.604008286031403 C 0.0 **** -0.24
21462 H 39.143344983827625 27.491439511189895 8.60973847700353 H 0.0 **** 0.06
21463 H 39.25747907727686 28.935690230474705 9.643734717628721 H 0.0 **** 0.06
21464 H 40.443659555715996 27.619793992193394 9.818991624717773 H 0.0 **** 0.06
21465 H 38.7600735558172 27.375858593232493 10.343568324775749 H 0.0 **** 0.06
21466 C 94.75240569985222 1.4721879224312602 76.91905422416278 C 0.0 **** -0.24
21467 H 95.61209668933762 1.551256441411624 77.58394323770062 H 0.0 **** 0.06
21468 H 94.96036543520779 0.734203530294053 76.14338888444632 H 0.0 **** 0.06
21469 H 94.56154648089952 2.441602350157609 76.45692180676946 H 0.0 **** 0.06
21470 H 93.8772307032997 1.1631076705278929 77.48987113575444 H 0.0 **** 0.06
21471 C 106.39485083155131 3.5846267217557717 59.57481003206692 C 0.0 **** -0.24
21472 H 106.15589473335726 3.3405076773286115 58.53996187221031 H 0.0 **** 0.06
21473 H 107.46345905052661 3.4489884379671096 59.74254676387477 H 0.0 **** 0.06
21474 H 105.83571252261586 2.92798387116634 60.241719625213705 H 0.0 **** 0.06
21475 H 106.12433473073867 4.622011827993786 59.77518496306726 H 0.0 **** 0.06
21476 C 69.03509240481077 98.01241204182773 38.17068854077405 C 0.0 **** -0.24
21477 H 69.75874631049055 97.95607079363782 38.983744222928465 H 0.0 **** 0.06
21478 H 69.17232664602341 98.94701732264159 37.627012547554926 H 0.0 **** 0.06
21479 H 68.02516035279245 97.9752618750814 38.58086783381685 H 0.0 **** 0.06
21480 H 69.18293622695182 97.1711317309387 37.493009012072804 H 0.0 **** 0.06
21481 C 21.4388506302202 0.47637259777439134 82.41595836497993 C 0.0 **** -0.24
21482 H 22.292701075558398 -0.1712066100953713 82.61743663915675 H 0.0 **** 0.06
21483 H 21.574907659849345 1.4269391272007335 82.93097252281626 H 0.0 **** 0.06
21484 H 20.527348065860025 -0.003753156554651582 82.77127114812785 H 0.0 **** 0.06
21485 H 21.362651330444578 0.6520101141083661 81.34245520218462 H 0.0 **** 0.06
21486 C 12.408943635330715 85.79252451907576 66.54662975828683 C 0.0 **** -0.24
21487 H 12.28021442293766 86.87508259673615 66.54745534052734 H 0.0 **** 0.06
21488 H 12.4385167443086 85.4291507012598 67.57323713232245 H 0.0 **** 0.06
21489 H 13.343639697302194 85.53873213196448 66.0440666429675 H 0.0 **** 0.06
21490 H 11.576089023686492 85.32802196131243 66.01931068796199 H 0.0 **** 0.06
21491 C 103.81716049062135 70.15039182399255 76.89746623449369 C 0.0 **** -0.24
21492 H 104.20453656613944 71.09126112172649 77.28919143894925 H 0.0 **** 0.06
21493 H 104.34549431446322 69.89414485010843 75.97835862686615 H 0.0 **** 0.06
21494 H 102.75352834754676 70.25468605369241 76.68742301910146 H 0.0 **** 0.06
21495 H 103.96647975033596 69.36128174171222 77.6347870102284 H 0.0 **** 0.06
21496 C 47.153638645290414 55.05649865465969 11.77798670479767 C 0.0 **** -0.24
21497 H 47.25123864267607 56.08536784617928 11.431002108493217 H 0.0 **** 0.06
21498 H 47.70113180030768 54.936445935261716 12.713867866509219 H 0.0 **** 0.06
21499 H 47.563107995876805 54.37969359798295 11.027814958721478 H 0.0 **** 0.06
21500 H 46.10086550483558 54.82700071242671 11.940837077103026 H 0.0 **** 0.06
21501 C 107.50876442030494 6.098789003623011 67.94239409550573 C 0.0 **** -0.24
21502 H 107.19303656002464 5.887378975409064 66.9217484752617 H 0.0 **** 0.06
21503 H 107.88487659870407 7.119865558359436 68.0028849448334 H 0.0 **** 0.06
21504 H 108.29849852874378 5.403891932348472 68.2302048419433 H 0.0 **** 0.06
21505 H 106.66022269871665 5.983227144276526 68.61611156270871 H 0.0 **** 0.06
21506 C 48.59504062295382 27.313627157459337 94.82639978496607 C 0.0 **** -0.24
21507 H 49.57213098538306 26.84707100330814 94.95548769548994 H 0.0 **** 0.06
21508 H 47.816392176975846 26.556821283040122 94.91560894966473 H 0.0 **** 0.06
21509 H 48.54206489946236 27.776537686326165 93.84078662591658 H 0.0 **** 0.06
21510 H 48.45227225847241 28.0753908509905 95.59373361082056 H 0.0 **** 0.06
21511 C 77.93897522737613 39.09243511499557 48.99485804515403 C 0.0 **** -0.24
21512 H 77.57695510951886 38.245571391107546 48.413077965129766 H 0.0 **** 0.06
21513 H 78.40199201713322 39.819787697863205 48.32696763096656 H 0.0 **** 0.06
21514 H 78.67424399143745 38.746417739885146 49.72073726496572 H 0.0 **** 0.06
21515 H 77.10343205220445 39.55870204575774 49.516666056858966 H 0.0 **** 0.06
21516 C 21.67560650222977 104.23148570104024 73.41216629284536 C 0.0 **** -0.24
21517 H 21.884176997582724 105.29953407789611 73.48362913355906 H 0.0 **** 0.06
21518 H 20.851385636261174 103.9778019696272 74.07978703606142 H 0.0 **** 0.06
21519 H 22.56314345259115 103.66799864006606 73.69902571611249 H 0.0 **** 0.06
21520 H 21.40324049663231 103.98300942900016 72.38615889036515 H 0.0 **** 0.06
21521 C 95.9740952857199 72.09511666546666 74.39524261960014 C 0.0 **** -0.24
21522 H 96.95325252514124 71.6408811939574 74.24069766539145 H 0.0 **** 0.06
21523 H 95.91802468787145 72.50078555982753 75.40560528785596 H 0.0 **** 0.06
21524 H 95.19918862623962 71.34004652047196 74.26293007550896 H 0.0 **** 0.06
21525 H 95.82751537498848 72.89730995052463 73.67233453318252 H 0.0 **** 0.06
21526 C 40.669820451857476 96.82778014075573 65.07867484577898 C 0.0 **** -0.24
21527 H 41.62501435810455 97.14020763529402 65.50024157447777 H 0.0 **** 0.06
21528 H 40.05958045020276 97.70725507494731 64.871397543531 H 0.0 **** 0.06
21529 H 40.15172632517627 96.18583566198544 65.79076585113388 H 0.0 **** 0.06
21530 H 40.843458775773 96.27851911183373 64.15281040349329 H 0.0 **** 0.06
21531 C 7.75770010248425 109.0872062333678 69.32200853364395 C 0.0 **** -0.24
21532 H 8.208261247830364 109.97973884693982 68.88759851682693 H 0.0 **** 0.06
21533 H 8.236856534979893 108.19986445650102 68.90773498675185 H 0.0 **** 0.06
21534 H 6.692921866500058 109.06930974427064 69.088053576157 H 0.0 **** 0.06
21535 H 7.891387752729486 109.10343398871805 70.40300070057853 H 0.0 **** 0.06
21536 C 103.84930708366187 27.496345209178685 74.49789874770659 C 0.0 **** -0.24
21537 H 104.46298640820373 26.709418548005715 74.93644861240614 H 0.0 **** 0.06
21538 H 103.06770204027049 27.78160433393583 75.2023848546462 H 0.0 **** 0.06
21539 H 103.39499361040802 27.132013412719857 73.57710212572306 H 0.0 **** 0.06
21540 H 104.47404821224757 28.362436646014885 74.27697553902681 H 0.0 **** 0.06
21541 C 43.11810816135619 21.055728908710392 75.10762230746738 C 0.0 **** -0.24
21542 H 42.858039057132885 21.799184014113848 74.35431067368216 H 0.0 **** 0.06
21543 H 42.360277016415694 20.271068329465578 75.12041670473414 H 0.0 **** 0.06
21544 H 43.1647157245165 21.5318314782495 76.08742176595013 H 0.0 **** 0.06
21545 H 44.08841664151305 20.62068276046864 74.86843585468819 H 0.0 **** 0.06
21546 C 58.6994680923584 9.919748067854812 53.21514054638493 C 0.0 **** -0.24
21547 H 58.58624925404436 9.254999789724309 52.358463763959946 H 0.0 **** 0.06
21548 H 59.72703247598815 10.283162067668457 53.25961139529912 H 0.0 **** 0.06
21549 H 58.466802324874706 9.375069037715264 54.13022101387497 H 0.0 **** 0.06
21550 H 58.01866763503482 10.765058430043212 53.11140999775566 H 0.0 **** 0.06
21551 C 64.41710262959646 27.718736363459385 69.81313520370591 C 0.0 **** -0.24
21552 H 64.28319472101958 27.604823564248107 70.88898854997387 H 0.0 **** 0.06
21553 H 63.58924779372262 28.29858884712671 69.40381334807766 H 0.0 **** 0.06
21554 H 64.43899235002874 26.735371800538672 69.34374109886326 H 0.0 **** 0.06
21555 H 65.35576769188276 28.236891352118477 69.6160865120495 H 0.0 **** 0.06
21556 C 56.79110848621121 95.36822934595111 83.85961860188092 C 0.0 **** -0.24
21557 H 56.807667394476724 96.21927720930091 84.54119343243275 H 0.0 **** 0.06
21558 H 56.10039372233998 95.57308374877974 83.0403703142101 H 0.0 **** 0.06
21559 H 56.46396852057221 94.47898436748542 84.39704822558355 H 0.0 **** 0.06
21560 H 57.79201355157787 95.20467391142601 83.4593867125742 H 0.0 **** 0.06
21561 C 15.630412605552156 96.78013917744255 18.459369519386314 C 0.0 **** -0.24
21562 H 14.671059700220408 97.26816182510626 18.6335039462206 H 0.0 **** 0.06
21563 H 15.695779130507454 96.46918389002957 17.41694020940423 H 0.0 **** 0.06
21564 H 15.714759186841217 95.90649965439933 19.105413235412783 H 0.0 **** 0.06
21565 H 16.43744547327943 97.47767565253785 18.682749604831855 H 0.0 **** 0.06
21566 C 86.8220297864563 30.07894130069917 92.57576956697513 C 0.0 **** -0.24
21567 H 85.99050039073516 29.727906069794358 91.9652182085983 H 0.0 **** 0.06
21568 H 87.5091470438078 30.656253026086148 91.95714131788486 H 0.0 **** 0.06
21569 H 87.34662630084647 29.223470151547758 93.00077833359941 H 0.0 **** 0.06
21570 H 86.44180628773009 30.707739932153544 93.38129751286918 H 0.0 **** 0.06
21571 C 96.10045106226741 11.03535929526659 48.04068375031852 C 0.0 **** -0.24
21572 H 96.675138337785 11.722021579046448 47.41933498033603 H 0.0 **** 0.06
21573 H 95.30712611295955 10.583110888032646 47.44516146865203 H 0.0 **** 0.06
21574 H 95.66078638503991 11.582487997780603 48.87533342347041 H 0.0 **** 0.06
21575 H 96.75693629995732 10.254737675446394 48.42426536060168 H 0.0 **** 0.06
21576 C 55.682353821370384 71.75184693381385 86.3119215843318 C 0.0 **** -0.24
21577 H 56.70962262361195 71.97635217674247 86.02374091469395 H 0.0 **** 0.06
21578 H 55.47703154992024 72.18698421964768 87.28961383399397 H 0.0 **** 0.06
21579 H 55.547905452612724 70.67118357071999 86.35880650090667 H 0.0 **** 0.06
21580 H 54.998224692503925 72.17149539923446 85.57464935219144 H 0.0 **** 0.06
21581 C 81.53588769241622 53.589321185279715 13.34600765210942 C 0.0 **** -0.24
21582 H 80.89884732676362 52.82592208765681 12.899788833417034 H 0.0 **** 0.06
21583 H 81.53188196402054 53.475976037368525 14.431154558795114 H 0.0 **** 0.06
21584 H 81.15813002206976 54.57710207127067 13.08200589565297 H 0.0 **** 0.06
21585 H 82.55357873456474 53.47730454329292 12.9724235740468 H 0.0 **** 0.06
21586 C 36.41833427461642 86.17784844328543 53.93822109782536 C 0.0 **** -0.24
21587 H 36.231258461862474 87.17620950872089 53.54329241281823 H 0.0 **** 0.06
21588 H 36.13583812090623 85.43418230558174 53.19211284001162 H 0.0 **** 0.06
21589 H 35.82715534792731 86.02858711190373 54.84181248898392 H 0.0 **** 0.06
21590 H 37.477119977252705 86.07358052944056 54.174783752093845 H 0.0 **** 0.06
21591 C 14.09526974167693 30.65645526564333 80.15477116595696 C 0.0 **** -0.24
21592 H 14.496673255380728 31.341458783238437 80.90202901665197 H 0.0 **** 0.06
21593 H 13.3799167224239 29.982581089851067 80.62727044150876 H 0.0 **** 0.06
21594 H 14.90969727780221 30.075896426670795 79.72103495081473 H 0.0 **** 0.06
21595 H 13.59666020394775 31.225863638871772 79.37033410634177 H 0.0 **** 0.06
21596 C 1.0188811897150458 56.35829275385858 9.150689713139874 C 0.0 **** -0.24
21597 H 1.8660863990362486 56.15956541003641 9.80675039460471 H 0.0 **** 0.06
21598 H 0.4144350170507778 57.16297776058466 9.57082039646354 H 0.0 **** 0.06
21599 H 0.4114212771546022 55.45798758191462 9.05916973210199 H 0.0 **** 0.06
21600 H 1.3828418747093565 56.65199299764577 8.16583608050092 H 0.0 **** 0.06
21601 C 87.78692477735791 24.875520951480098 44.91280231658804 C 0.0 **** -0.24
21602 H 87.48445138885705 23.87151265966537 44.6148122607699 H 0.0 **** 0.06
21603 H 87.93824716636277 24.903699204609893 45.99173900093276 H 0.0 **** 0.06
21604 H 87.00909983002805 25.58627900317134 44.63538357281085 H 0.0 **** 0.06
21605 H 88.71670519579084 25.139045434803222 44.40829552632279 H 0.0 **** 0.06
21606 C 68.43668629595868 25.80347221376374 50.19303771732257 C 0.0 **** -0.24
21607 H 67.65610450685881 25.57258576330412 49.46732328375734 H 0.0 **** 0.06
21608 H 69.00031382327074 26.672552697765838 49.85611501637942 H 0.0 **** 0.06
21609 H 69.10711766537628 24.948614515220697 50.28692597883483 H 0.0 **** 0.06
21610 H 67.98193002262332 26.01682664357773 51.159685747662934 H 0.0 **** 0.06
21611 C 75.03152106877707 46.53593531494192 23.56065633280315 C 0.0 **** -0.24
21612 H 75.9714811553838 46.368634276644116 23.033679751906845 H 0.0 **** 0.06
21613 H 74.21136058210641 46.10516333111525 22.986513383913916 H 0.0 **** 0.06
21614 H 74.86876674367926 47.60711357766988 23.680126105266652 H 0.0 **** 0.06
21615 H 75.07646887412875 46.06383448517332 24.5421681119995 H 0.0 **** 0.06
21616 C 4.972608356165443 45.039397777110565 88.76304787180851 C 0.0 **** -0.24
21617 H 5.857666094727929 44.60391940474261 88.30070905477767 H 0.0 **** 0.06
21618 H 4.1139758038310354 44.90408889262562 88.10417035114519 H 0.0 **** 0.06
21619 H 5.137866785149095 46.104719923007245 88.93066753117407 H 0.0 **** 0.06
21620 H 4.780572695025873 44.547070700276706 89.71668787036552 H 0.0 **** 0.06
21621 C 6.868789700461647 44.94197942938965 99.39394668994969 C 0.0 **** -0.24
21622 H 6.372033475918556 43.97600589145844 99.31547925731785 H 0.0 **** 0.06
21623 H 7.222259770415434 45.250078604905724 98.40974869599393 H 0.0 **** 0.06
21624 H 7.716270751101376 44.86058860639021 100.07516567527801 H 0.0 **** 0.06
21625 H 6.165783073187669 45.68170381844743 99.7760073367301 H 0.0 **** 0.06
21626 C 55.67823740764999 16.175557190466627 40.80201184313111 C 0.0 **** -0.24
21627 H 55.016661268812015 15.863398327555181 39.99416860212446 H 0.0 **** 0.06
21628 H 56.64761449053651 16.455780752314777 40.39041171367137 H 0.0 **** 0.06
21629 H 55.805682415388674 15.351321634288052 41.504425841659334 H 0.0 **** 0.06
21630 H 55.24134746560597 17.028943163772077 41.319777599824214 H 0.0 **** 0.06
21631 C 94.28318948932974 15.958080375486265 70.3249494256603 C 0.0 **** -0.24
21632 H 95.06752760990713 15.78216496551741 71.06117652884626 H 0.0 **** 0.06
21633 H 93.34335773512117 15.54233852478339 70.6899630048377 H 0.0 **** 0.06
21634 H 94.55346845562246 15.47726392415672 69.38529276569182 H 0.0 **** 0.06
21635 H 94.16890247617465 17.02962482399382 70.16557638592178 H 0.0 **** 0.06
21636 C 44.716764194099824 52.212049829904686 13.08998579644215 C 0.0 **** -0.24
21637 H 43.80115820232584 52.726026333760444 12.79747650953648 H 0.0 **** 0.06
21638 H 45.2056909926647 52.76824322353147 13.890075403754565 H 0.0 **** 0.06
21639 H 45.38602739153106 52.14700487803918 12.231102291263397 H 0.0 **** 0.06
21640 H 44.47480410305724 51.20890432247444 13.438902969421832 H 0.0 **** 0.06
21641 C 103.64205038825287 90.86625113411725 7.925983534130587 C 0.0 **** -0.24
21642 H 103.66200056544915 91.16728958633301 6.878273777309621 H 0.0 **** 0.06
21643 H 103.81069326236423 91.73934138009736 8.557151432659294 H 0.0 **** 0.06
21644 H 104.42519451940558 90.12958005278692 8.107060548302497 H 0.0 **** 0.06
21645 H 102.67136653540501 90.4301828213225 8.160468312379939 H 0.0 **** 0.06
21646 C 57.825897710343796 108.53611875281844 92.09155361289956 C 0.0 **** -0.24
21647 H 56.999888735010224 107.97254362513091 92.52535899676863 H 0.0 **** 0.06
21648 H 58.61766145515645 108.64896862864114 92.83132241518179 H 0.0 **** 0.06
21649 H 57.471208181977524 109.52109846331803 91.7854388457802 H 0.0 **** 0.06
21650 H 58.212312537431885 108.00275606550619 91.22273216099228 H 0.0 **** 0.06
21651 C 18.33403668391938 47.141401095553704 44.87043715328585 C 0.0 **** -0.24
21652 H 18.053490288497812 46.33692442606679 45.55077817352594 H 0.0 **** 0.06
21653 H 19.17649409113011 47.69262905479917 45.28761588434432 H 0.0 **** 0.06
21654 H 17.488057442663035 47.816345883991005 44.73901973038173 H 0.0 **** 0.06
21655 H 18.615612884246758 46.72041285233507 43.90584783722784 H 0.0 **** 0.06
21656 C 56.72597404808951 18.325613843511764 10.702390769618603 C 0.0 **** -0.24
21657 H 57.205459710617646 17.69018347979714 9.957642740553354 H 0.0 **** 0.06
21658 H 55.66066215666481 18.402508326237317 10.482577834937217 H 0.0 **** 0.06
21659 H 57.17594822324671 19.318142275563368 10.676809065296084 H 0.0 **** 0.06
21660 H 56.86268235413263 17.890588714692004 11.692981449139182 H 0.0 **** 0.06
21661 C 96.89438072545232 38.7441426703144 96.94959976560104 C 0.0 **** -0.24
21662 H 97.36535218828942 39.090915763541545 96.02973826966422 H 0.0 **** 0.06
21663 H 95.94124083953517 38.26997972378612 96.71246943769526 H 0.0 **** 0.06
21664 H 96.72354045339972 39.59306549205739 97.61213243826676 H 0.0 **** 0.06
21665 H 97.54606476668636 38.023843240462526 97.44240847081541 H 0.0 **** 0.06
21666 C 19.54192634165551 36.174573702644636 28.124928012496355 C 0.0 **** -0.24
21667 H 19.62893493830265 37.26011198245118 28.146490192169523 H 0.0 **** 0.06
21668 H 20.457744793346393 35.744851846189256 27.717169959634305 H 0.0 **** 0.06
21669 H 18.69621118270115 35.889814271227806 27.49939402037066 H 0.0 **** 0.06
21670 H 19.386606403874453 35.80235839810903 29.13732680912517 H 0.0 **** 0.06
21671 C 57.52918016092616 60.562611367636265 56.24879648381048 C 0.0 **** -0.24
21672 H 58.56538898132831 60.596941500566686 55.91426020420265 H 0.0 **** 0.06
21673 H 57.46863944804511 60.008870524956535 57.18609622261009 H 0.0 **** 0.06
21674 H 56.91954018758207 60.06768946912578 55.493528830684845 H 0.0 **** 0.06
21675 H 57.16359545374755 61.57811540193185 56.40195736079739 H 0.0 **** 0.06
21676 C 22.067197273289796 36.12391596615669 11.451635910863217 C 0.0 **** -0.24
21677 H 21.311944342999592 36.785035780743925 11.877878234212233 H 0.0 **** 0.06
21678 H 22.729997517372016 35.77256391736796 12.241883590420173 H 0.0 **** 0.06
21679 H 22.646615385356494 36.668621755717055 10.706280216089795 H 0.0 **** 0.06
21680 H 21.579244140649376 35.271237591542075 10.979606053099815 H 0.0 **** 0.06
21681 C 42.637284595608065 8.12250228875942 8.845252345004653 C 0.0 **** -0.24
21682 H 43.14095326651727 8.914258026931378 8.291473922609384 H 0.0 **** 0.06
21683 H 43.07723286481382 7.1598362906727 8.583451666197575 H 0.0 **** 0.06
21684 H 41.57734749567237 8.119593103109594 8.592498102005564 H 0.0 **** 0.06
21685 H 42.75452466020673 8.296057489674524 9.91560662901135 H 0.0 **** 0.06
21686 C 46.748567530238745 39.40842406433046 24.16113681910457 C 0.0 **** -0.24
21687 H 47.813957093567865 39.18313514622105 24.21579831843937 H 0.0 **** 0.06
21688 H 46.576326351166756 40.43086732406158 24.497726528466444 H 0.0 **** 0.06
21689 H 46.19911176936864 38.71786160524195 24.8012912877509 H 0.0 **** 0.06
21690 H 46.40725266484543 39.30089313741007 23.132463385567178 H 0.0 **** 0.06
21691 C 93.53773480104074 25.857784365705385 9.170323448847387 C 0.0 **** -0.24
21692 H 93.9823762468519 24.863839858719295 9.221842126197137 H 0.0 **** 0.06
21693 H 93.8255098555813 26.430272037318105 10.051900007577752 H 0.0 **** 0.06
21694 H 92.45230775713003 25.769066897555575 9.132006661144958 H 0.0 **** 0.06
21695 H 93.89238064969646 26.36661112348546 8.273421243509286 H 0.0 **** 0.06
21696 C 68.26283922488246 98.67260632674527 88.18621415127902 C 0.0 **** -0.24
21697 H 68.00374823671287 99.37119885203907 87.39149839144864 H 0.0 **** 0.06
21698 H 69.21428802738725 98.19423141899523 87.95353305216526 H 0.0 **** 0.06
21699 H 67.48459800504509 97.91372254421478 88.27074167183866 H 0.0 **** 0.06
21700 H 68.34861655612036 99.21214035499489 89.12956888759629 H 0.0 **** 0.06
21701 C 77.94676425913255 88.34280777105324 7.765923233727335 C 0.0 **** -0.24
21702 H 78.19991722783631 88.75858772515976 6.791325674224197 H 0.0 **** 0.06
21703 H 78.84681733073167 87.9458782048736 8.235842662436312 H 0.0 **** 0.06
21704 H 77.2186854119606 87.54203659601067 7.641989739424901 H 0.0 **** 0.06
21705 H 77.52284986719586 89.12545967527532 8.39553222018219 H 0.0 **** 0.06
21706 C 86.80182820387954 61.35310660609801 68.38579256867318 C 0.0 **** -0.24
21707 H 85.82487419225818 61.83644570998109 68.40971032767932 H 0.0 **** 0.06
21708 H 86.98709400974506 60.86092364412558 69.34135128147646 H 0.0 **** 0.06
21709 H 87.57407487110025 62.101712059564065 68.20670080359668 H 0.0 **** 0.06
21710 H 86.82082132654766 60.61271750244221 67.58604441996357 H 0.0 **** 0.06
21711 C 20.809933103786904 14.488215552342353 80.16294505997945 C 0.0 **** -0.24
21712 H 20.436528150017352 14.680278057746598 79.15735191669306 H 0.0 **** 0.06
21713 H 20.865073286629325 13.412137527682415 80.3306726923773 H 0.0 **** 0.06
21714 H 20.134828639513785 14.935668639693674 80.89183018002436 H 0.0 **** 0.06
21715 H 21.802543974497837 14.924550945109296 80.27131439757024 H 0.0 **** 0.06
21716 C 70.59938985149408 91.96610990466057 35.14129390547083 C 0.0 **** -0.24
21717 H 71.6737930326761 91.90597239786537 34.963582850414014 H 0.0 **** 0.06
21718 H 70.41151064084929 92.01533239646966 36.21462306924414 H 0.0 **** 0.06
21719 H 70.11353708898572 91.08286642836373 34.72613617743502 H 0.0 **** 0.06
21720 H 70.20170385952767 92.86011866804226 34.66057562455032 H 0.0 **** 0.06
21721 C 55.24265292592057 38.2647609827134 63.070309553922016 C 0.0 **** -0.24
21722 H 55.920879351517385 37.91593469183904 63.849752978596314 H 0.0 **** 0.06
21723 H 55.48175626153116 37.76608512453359 62.13066074683593 H 0.0 **** 0.06
21724 H 55.35274165799336 39.34233813693241 62.94926492063314 H 0.0 **** 0.06
21725 H 54.215048551877175 38.034432086706175 63.35377344304089 H 0.0 **** 0.06
21726 C 76.38260125492383 52.22881412774717 23.747561451652075 C 0.0 **** -0.24
21727 H 75.55858110609284 52.743029050062546 23.252386031016613 H 0.0 **** 0.06
21728 H 76.85665623839174 51.54236241734549 23.0455295296768 H 0.0 **** 0.06
21729 H 76.00041267661561 51.6697675909179 24.601076345124568 H 0.0 **** 0.06
21730 H 77.11292121866893 52.96140035783685 24.090284371745213 H 0.0 **** 0.06
21731 C 7.552794918763595 67.32185970513223 24.227581105197515 C 0.0 **** -0.24
21732 H 8.295867988763987 66.84012668412561 24.86240905768321 H 0.0 **** 0.06
21733 H 7.3547694439705396 66.69421993455876 23.35915836626822 H 0.0 **** 0.06
21734 H 7.9299797505563845 68.2906368382146 23.898399719479897 H 0.0 **** 0.06
21735 H 6.6308205639194995 67.46438659845734 24.791454536915467 H 0.0 **** 0.06
21736 C 80.6342248268889 63.91252826731427 94.94074640233157 C 0.0 **** -0.24
21737 H 81.04574114779444 63.74327619742057 93.9454424570315 H 0.0 **** 0.06
21738 H 81.43633147998045 63.86672929922844 95.67795755054692 H 0.0 **** 0.06
21739 H 79.89259672222178 63.14498079315996 95.1615437805595 H 0.0 **** 0.06
21740 H 80.16291658283623 64.89446162807185 94.97602034472095 H 0.0 **** 0.06
21741 C 41.662949298914896 69.1596808898088 109.20565271778777 C 0.0 **** -0.24
21742 H 42.493077006351314 68.82705656918309 108.58358049870951 H 0.0 **** 0.06
21743 H 41.91956681581405 70.10949075830912 109.67525738953812 H 0.0 **** 0.06
21744 H 41.46514408130918 68.4148134468095 109.97628196572305 H 0.0 **** 0.06
21745 H 40.77385552557422 69.28834896178124 108.58742888345003 H 0.0 **** 0.06
21746 C 31.089651565373032 25.27799643605499 5.2666550076531 C 0.0 **** -0.24
21747 H 30.536072530671845 25.67959304822702 6.115272274611215 H 0.0 **** 0.06
21748 H 30.615192872573488 25.598142295299823 4.338503355769404 H 0.0 **** 0.06
21749 H 31.093688852222158 24.189138203275604 5.3162262869258825 H 0.0 **** 0.06
21750 H 32.1153400135467 25.646359011283664 5.29584588696585 H 0.0 **** 0.06
21751 C 77.83349681853662 8.704038356943608 45.379872818016224 C 0.0 **** -0.24
21752 H 77.50664446462457 7.666143880157081 45.44914398413374 H 0.0 **** 0.06
21753 H 78.91781251715543 8.75151482992138 45.47922221056251 H 0.0 **** 0.06
21754 H 77.36894742529086 9.28323717582847 46.177876860639344 H 0.0 **** 0.06
21755 H 77.53781799403237 9.113804467244286 44.414363831449066 H 0.0 **** 0.06
21756 C 28.42200519195893 31.65318692750951 80.83390878152323 C 0.0 **** -0.24
21757 H 28.127239404722104 31.36627974503245 79.82334291095674 H 0.0 **** 0.06
21758 H 28.98158461464334 30.83824154981957 81.29338541679545 H 0.0 **** 0.06
21759 H 27.531070079860513 31.861557101574718 81.42565731141622 H 0.0 **** 0.06
21760 H 29.047394088455064 32.544534118517035 80.79026536865001 H 0.0 **** 0.06
21761 C 42.28645098317298 34.39764969697989 86.46119359447472 C 0.0 **** -0.24
21762 H 42.5704527206089 33.440330040566955 86.89748125223934 H 0.0 **** 0.06
21763 H 41.44226894738637 34.81141169547639 87.01233471744891 H 0.0 **** 0.06
21764 H 42.003942659166 34.25143131989251 85.41862124751358 H 0.0 **** 0.06
21765 H 43.12959256970521 35.08578666875551 86.5160078525878 H 0.0 **** 0.06
21766 C 39.52939762766573 95.09021447162809 88.19231943466957 C 0.0 **** -0.24
21767 H 38.73218178352761 95.22212695718186 87.46084021210186 H 0.0 **** 0.06
21768 H 39.24886621381188 95.57617513991326 89.12685312765299 H 0.0 **** 0.06
21769 H 40.44782912442446 95.53789241353445 87.81121319947448 H 0.0 **** 0.06
21770 H 39.68805672784529 94.0271357772994 88.36880388537176 H 0.0 **** 0.06
21771 C 54.32070175186334 9.163278146155108 12.192144005196383 C 0.0 **** -0.24
21772 H 54.608909884972455 9.240300932377522 11.14396253004405 H 0.0 **** 0.06
21773 H 54.206023849224565 8.113412278897044 12.460957098862693 H 0.0 **** 0.06
21774 H 53.3754256752028 9.684282638985593 12.346961198051801 H 0.0 **** 0.06
21775 H 55.09169249568475 9.61618118416905 12.815556371779252 H 0.0 **** 0.06
21776 C 8.458462787992389 94.42088734337972 5.614786747454673 C 0.0 **** -0.24
21777 H 7.9304642929327684 95.06538200189112 6.317690790697327 H 0.0 **** 0.06
21778 H 7.734257544957913 93.87762324665314 5.00697115256628 H 0.0 **** 0.06
21779 H 9.077033572012269 93.71298508871052 6.165933204719835 H 0.0 **** 0.06
21780 H 9.090161570279065 95.03057756832129 4.968936663638743 H 0.0 **** 0.06
21781 C 13.139798631615122 96.67567043979669 78.60388356118898 C 0.0 **** -0.24
21782 H 12.42315598936976 96.59454146670865 77.78563216020143 H 0.0 **** 0.06
21783 H 13.905325252032384 97.40700358619422 78.34455040239973 H 0.0 **** 0.06
21784 H 13.606489824558935 95.70552238414132 78.77422715229133 H 0.0 **** 0.06
21785 H 12.623064075144825 96.99409229233515 79.50841532409865 H 0.0 **** 0.06
21786 C 95.23489702055983 33.53661170786283 2.729473319205823 C 0.0 **** -0.24
21787 H 95.18271012396045 34.053089289182545 3.6877844825496027 H 0.0 **** 0.06
21788 H 95.08089336591487 32.46792324972544 2.8843145302410846 H 0.0 **** 0.06
21789 H 96.21436618829814 33.70159447143543 2.2817137305396216 H 0.0 **** 0.06
21790 H 94.46104338115009 33.92312706234159 2.066352453576883 H 0.0 **** 0.06
21791 C 1.8838955422142334 81.9573713366452 107.26242277002149 C 0.0 **** -0.24
21792 H 1.3020453290614284 82.87849100409323 107.24753290975988 H 0.0 **** 0.06
21793 H 2.4024516224240386 81.87213350571425 108.21779338221546 H 0.0 **** 0.06
21794 H 2.6140547319728142 81.97611107345736 106.45253308140067 H 0.0 **** 0.06
21795 H 1.2188744560645688 81.10435916844847 107.13173228547447 H 0.0 **** 0.06
21796 C 98.59087434401044 78.24237826424496 90.14079222713877 C 0.0 **** -0.24
21797 H 99.36258882962346 78.19167654666842 90.90934800651739 H 0.0 **** 0.06
21798 H 99.02592531197456 78.61223147400094 89.2130292953807 H 0.0 **** 0.06
21799 H 97.79910859106064 78.91725507300168 90.4667802244993 H 0.0 **** 0.06
21800 H 98.17548953525443 77.24787823327762 89.97770324566521 H 0.0 **** 0.06
21801 C 39.31773579074945 73.53546572107601 16.203802390381497 C 0.0 **** -0.24
21802 H 38.583279465550795 72.73051361126394 16.173489356113407 H 0.0 **** 0.06
21803 H 40.29507959507617 73.14637015228357 15.91704704934898 H 0.0 **** 0.06
21804 H 39.37045246544802 73.94203796185198 17.213281355134768 H 0.0 **** 0.06
21805 H 39.02162903221211 74.32233707319472 15.510215974388643 H 0.0 **** 0.06
21806 C 8.727337188303261 62.11882161185558 41.95746825508877 C 0.0 **** -0.24
21807 H 9.66781128334014 61.593514860613354 41.79370588121543 H 0.0 **** 0.06
21808 H 8.34797889638127 61.88303234843788 42.95135131350867 H 0.0 **** 0.06
21809 H 8.000649338081631 61.80526084715906 41.207650741124894 H 0.0 **** 0.06
21810 H 8.89217327007505 63.19316448798223 41.87656519340362 H 0.0 **** 0.06
21811 C 8.565858750351637 17.09292606955441 33.57340855180095 C 0.0 **** -0.24
21812 H 9.1842017923383 17.990358370328565 33.5251166424102 H 0.0 **** 0.06
21813 H 7.518309040220203 17.378166082557854 33.67427798460338 H 0.0 **** 0.06
21814 H 8.864514146100674 16.4932726840062 34.433112351719885 H 0.0 **** 0.06
21815 H 8.698727988944142 16.51195398881225 32.6604654554441 H 0.0 **** 0.06
21816 C 52.671593337769345 74.80858470706812 102.13248033610785 C 0.0 **** -0.24
21817 H 53.215496335861566 75.46010576297327 102.81701941126309 H 0.0 **** 0.06
21818 H 52.36894076256952 73.90252219386437 102.65689427302979 H 0.0 **** 0.06
21819 H 53.31519747647225 74.54630624461272 101.29266869419877 H 0.0 **** 0.06
21820 H 51.786746794443644 75.32825771451094 101.76426647457401 H 0.0 **** 0.06
21821 C 30.2114812085319 6.335435283022791 19.014809389447862 C 0.0 **** -0.24
21822 H 29.392603744676357 7.049914900797885 18.938164888598408 H 0.0 **** 0.06
21823 H 30.539683909998452 6.050928746211188 18.01436801085194 H 0.0 **** 0.06
21824 H 29.872905823303768 5.449370578914005 19.551432993548104 H 0.0 **** 0.06
21825 H 31.042331568153514 6.791585259440824 19.55371084315999 H 0.0 **** 0.06
21826 C 77.59376204973819 102.06672610753373 27.658299366781932 C 0.0 **** -0.24
21827 H 77.1053019372705 102.34043328826311 28.59390558683259 H 0.0 **** 0.06
21828 H 77.42484555515637 102.84833367856601 26.917719407457014 H 0.0 **** 0.06
21829 H 77.18071227253131 101.12565807773774 27.295950530561015 H 0.0 **** 0.06
21830 H 78.6647827590865 101.95200424761839 27.82795031486137 H 0.0 **** 0.06
21831 C 8.829408582850178 40.60456626954914 57.266087441333084 C 0.0 **** -0.24
21832 H 9.458846954169388 41.307583230361246 56.72101925822818 H 0.0 **** 0.06
21833 H 9.367020938168267 39.665656139836585 57.403348697100014 H 0.0 **** 0.06
21834 H 7.915106586868333 40.42082425152435 56.70144276048487 H 0.0 **** 0.06
21835 H 8.576527470943972 41.02383184373468 58.240740437572086 H 0.0 **** 0.06
21836 C 66.24005723022225 15.446277695553391 101.22841113407128 C 0.0 **** -0.24
21837 H 65.23672166407621 15.867489045340662 101.30401330856724 H 0.0 **** 0.06
21838 H 66.85392591232578 15.82129940873763 102.04705501078152 H 0.0 **** 0.06
21839 H 66.6841229927746 15.736831223476472 100.27711515813633 H 0.0 **** 0.06
21840 H 66.18123493489058 14.359190208818958 101.28573143609606 H 0.0 **** 0.06
21841 C 105.29837034590136 60.9379741115344 92.30563713189082 C 0.0 **** -0.24
21842 H 104.24449090523808 61.21409732729478 92.26355404675924 H 0.0 **** 0.06
21843 H 105.51046312089264 60.459818381239046 93.26294570935974 H 0.0 **** 0.06
21844 H 105.91191681994309 61.83261645719023 92.20208215421499 H 0.0 **** 0.06
21845 H 105.52408186544812 60.24593921533557 91.49509607006149 H 0.0 **** 0.06
21846 C 29.958697353097364 1.0079287386592606 62.69849554543573 C 0.0 **** -0.24
21847 H 28.989442053356242 0.9049740771532679 62.21203455477679 H 0.0 **** 0.06
21848 H 30.49673666250169 1.8512551472561523 62.263504485032286 H 0.0 **** 0.06
21849 H 30.536969241962254 0.09505755236474656 62.55356896232044 H 0.0 **** 0.06
21850 H 29.813051027355527 1.180461076901552 63.7647640828104 H 0.0 **** 0.06
21851 C 15.822468511923233 71.45509866928126 21.942609447515906 C 0.0 **** -0.24
21852 H 15.261780775746331 71.6154114805949 22.86349430906472 H 0.0 **** 0.06
21853 H 16.785930813680167 71.00189113630017 22.177690771679863 H 0.0 **** 0.06
21854 H 15.982492256730083 72.41024578614403 21.443711476302667 H 0.0 **** 0.06
21855 H 15.260022311431044 70.79148557311976 21.28538435537064 H 0.0 **** 0.06
21856 C 40.430275559582356 47.79617881025243 95.55008154758937 C 0.0 **** -0.24
21857 H 40.71453873071599 46.9875436537865 94.87655091847432 H 0.0 **** 0.06
21858 H 41.1799250162874 48.587143739253094 95.50364752555681 H 0.0 **** 0.06
21859 H 40.366680768105596 47.41513426512131 96.56978575308173 H 0.0 **** 0.06
21860 H 39.46134707095291 48.19481164232843 95.25059318584483 H 0.0 **** 0.06
21861 C 97.65637847099073 78.24494149608512 55.47867963566233 C 0.0 **** -0.24
21862 H 97.83033756578303 77.25434578230721 55.0602789256788 H 0.0 **** 0.06
21863 H 97.4181855617352 78.15383267386431 56.53890189237928 H 0.0 **** 0.06
21864 H 96.82277441026558 78.71693777182804 54.95827914728794 H 0.0 **** 0.06
21865 H 98.55218578922637 78.85377135023364 55.35758336785751 H 0.0 **** 0.06
21866 C 13.602239786013087 29.197055475366056 92.47387787367188 C 0.0 **** -0.24
21867 H 12.689208952215097 28.60409470252307 92.4150211753683 H 0.0 **** 0.06
21868 H 14.330311754401066 28.814284119147658 91.75944515658253 H 0.0 **** 0.06
21869 H 14.012897191760672 29.131455371394907 93.48151173229189 H 0.0 **** 0.06
21870 H 13.376139958003222 30.237302198645637 92.24116463704343 H 0.0 **** 0.06
21871 C 8.784743632417758 57.02496430007392 18.793814915253122 C 0.0 **** -0.24
21872 H 8.651810339433325 55.9788477029295 19.067501981670688 H 0.0 **** 0.06
21873 H 7.808468095451133 57.491520229396826 18.658195751802225 H 0.0 **** 0.06
21874 H 9.349468192910791 57.08760747310848 17.86370585768438 H 0.0 **** 0.06
21875 H 9.32814286761726 57.54186842321499 19.584949085318357 H 0.0 **** 0.06
21876 C 23.305718947165534 45.514215089268106 98.7577238625356 C 0.0 **** -0.24
21877 H 23.23579268735688 46.19052778288991 99.61030369773908 H 0.0 **** 0.06
21878 H 22.3024227624902 45.260875623523134 98.41248505104018 H 0.0 **** 0.06
21879 H 23.82736630890493 44.60483055541158 99.05752163792229 H 0.0 **** 0.06
21880 H 23.85564748208678 46.00032932677356 97.95206859918977 H 0.0 **** 0.06
21881 C 29.66777260845612 57.56290738812538 2.834065748701633 C 0.0 **** -0.24
21882 H 30.747280418546325 57.45874919314815 2.7267680240984333 H 0.0 **** 0.06
21883 H 29.41033066368155 58.62009309919381 2.907454714066816 H 0.0 **** 0.06
21884 H 29.340897673027996 57.046146626060306 3.7373508861039966 H 0.0 **** 0.06
21885 H 29.172897121712253 57.127031597234804 1.9668683361590809 H 0.0 **** 0.06
21886 C 65.22802996584556 93.4269772736167 45.12215034147545 C 0.0 **** -0.24
21887 H 64.87248039302023 94.39092450527862 44.76034097101629 H 0.0 **** 0.06
21888 H 66.00018392065695 93.04951171618677 44.45131286697895 H 0.0 **** 0.06
21889 H 64.3977862048784 92.72151965350486 45.153989017642346 H 0.0 **** 0.06
21890 H 65.64198731709422 93.54526390844049 46.12360950446691 H 0.0 **** 0.06
21891 C 96.42468332086143 20.816318164053786 37.1186638187545 C 0.0 **** -0.24
21892 H 96.25221138893613 20.06279003707595 37.885812146702676 H 0.0 **** 0.06
21893 H 96.61461050088077 21.78008523291021 37.59192442969538 H 0.0 **** 0.06
21894 H 95.5450483097129 20.892898423530855 36.47883757764458 H 0.0 **** 0.06
21895 H 97.28740238825817 20.530521905706262 36.516791591189644 H 0.0 **** 0.06
21896 C 50.813188997563714 4.996858141508831 106.66433221365625 C 0.0 **** -0.24
21897 H 50.2089714572096 5.809556916062551 107.06840493642625 H 0.0 **** 0.06
21898 H 51.388796596588804 4.53869050191739 107.46865750431337 H 0.0 **** 0.06
21899 H 51.49281420620878 5.391378368347921 105.90920029617803 H 0.0 **** 0.06
21900 H 50.16071651886779 4.250604306129095 106.21129167564075 H 0.0 **** 0.06
21901 C 62.439430910886074 62.48125096855466 18.519106806112177 C 0.0 **** -0.24
21902 H 62.99990442809576 61.77461249629778 19.13219768935619 H 0.0 **** 0.06
21903 H 62.731510966577275 62.36569999834478 17.475665363335537 H 0.0 **** 0.06
21904 H 62.6567015804506 63.4973131867626 18.847705134805494 H 0.0 **** 0.06
21905 H 61.37271758422315 62.285552390274006 18.623306400704337 H 0.0 **** 0.06
21906 C 23.533225849439702 21.742795617423468 107.32215046668705 C 0.0 **** -0.24
21907 H 22.556439607301115 22.2258952590405 107.29678831730183 H 0.0 **** 0.06
21908 H 23.69837151862143 21.209127596888493 106.38594202950486 H 0.0 **** 0.06
21909 H 23.56858352982448 21.03805469008026 108.15329603356372 H 0.0 **** 0.06
21910 H 24.308430145096708 22.497298515706774 107.45300726636924 H 0.0 **** 0.06
21911 C 102.0197369038759 6.6787795048795715 73.31247423573012 C 0.0 **** -0.24
21912 H 101.13708806771425 7.313402040931152 73.38734811846729 H 0.0 **** 0.06
21913 H 101.82135778560294 5.8617606747005055 72.61793130873548 H 0.0 **** 0.06
21914 H 102.2591527999528 6.271662026432907 74.29482562378257 H 0.0 **** 0.06
21915 H 102.86081229284525 7.269374999070237 72.94905571029642 H 0.0 **** 0.06
21916 C 44.69858656616282 60.30570404252603 90.01856271521382 C 0.0 **** -0.24
21917 H 45.42509198140084 59.578537964700445 90.38077704987731 H 0.0 **** 0.06
21918 H 44.27814144657327 59.95888753507893 89.07427615587955 H 0.0 **** 0.06
21919 H 45.19194967110661 61.26567380133355 89.8663432255068 H 0.0 **** 0.06
21920 H 43.90075935357453 60.419600154411114 90.7516549464745 H 0.0 **** 0.06
21921 C 20.652029481943373 41.59167617782066 12.56543584354436 C 0.0 **** -0.24
21922 H 21.64647029751609 41.730000104070655 12.141373574764245 H 0.0 **** 0.06
21923 H 20.534259903319054 40.555282325946834 12.882154935031341 H 0.0 **** 0.06
21924 H 19.89979227652475 41.830277063989456 11.813839777368322 H 0.0 **** 0.06
21925 H 20.52915516164606 42.2508563721985 13.425070801058588 H 0.0 **** 0.06
21926 C 35.86584557443422 1.0958622606952133 102.66424454632107 C 0.0 **** -0.24
21927 H 34.99513323999207 1.7039527711368692 102.41677964550678 H 0.0 **** 0.06
21928 H 35.53843836012908 0.11027381549115489 102.99543150874217 H 0.0 **** 0.06
21929 H 36.43021972320855 1.5792254331476556 103.46143066342984 H 0.0 **** 0.06
21930 H 36.498245558006744 0.9923412581945286 101.78203449894653 H 0.0 **** 0.06
21931 C 65.05031570362759 55.505091274992594 80.94053150645755 C 0.0 **** -0.24
21932 H 65.09592569344903 54.449908855007436 81.21270190394384 H 0.0 **** 0.06
21933 H 66.03346088724034 55.835540732138384 80.604262857202 H 0.0 **** 0.06
21934 H 64.74659933093064 56.09082921299057 81.80833811627929 H 0.0 **** 0.06
21935 H 64.32604609747227 55.642365769331576 80.13802662761867 H 0.0 **** 0.06
21936 C 53.19341819570718 94.31772799751991 12.023970838593726 C 0.0 **** -0.24
21937 H 54.22043636530113 94.58959785919689 12.267596201633296 H 0.0 **** 0.06
21938 H 53.13266151916223 94.03582374076834 10.97226958071903 H 0.0 **** 0.06
21939 H 52.53813072555634 95.16781839908072 12.210415040084683 H 0.0 **** 0.06
21940 H 52.88365971031495 93.47659438625942 12.644065819780508 H 0.0 **** 0.06
21941 C 63.791699667791306 64.17717097209373 77.31710017825992 C 0.0 **** -0.24
21942 H 63.97881685723485 65.23467763225649 77.1292392979849 H 0.0 **** 0.06
21943 H 64.63016819329812 63.75222598719101 77.86998462699262 H 0.0 **** 0.06
21944 H 63.680180220387285 63.65461869052439 76.3669973450441 H 0.0 **** 0.06
21945 H 62.87789651710733 64.06716208104753 77.90121465350185 H 0.0 **** 0.06
21946 C 107.14013597945302 88.20242562699721 24.20461420899106 C 0.0 **** -0.24
21947 H 106.25757056403219 88.45350304976104 23.617401970459767 H 0.0 **** 0.06
21948 H 107.30049619891217 88.9664996055744 24.96607824655922 H 0.0 **** 0.06
21949 H 108.01027525765511 88.15342274194754 23.550372517392717 H 0.0 **** 0.06
21950 H 106.99280378454048 87.23548296324999 24.68660592801747 H 0.0 **** 0.06
21951 C 80.64362031942228 107.41483678954862 53.70491798669643 C 0.0 **** -0.24
21952 H 80.45061083426532 108.16984381232696 52.942596785791245 H 0.0 **** 0.06
21953 H 81.58294605012487 107.63943526421916 54.20884108742146 H 0.0 **** 0.06
21954 H 80.70689564386528 106.43309289069416 53.235537527249996 H 0.0 **** 0.06
21955 H 79.83098379025715 107.41673216903942 54.43187821911104 H 0.0 **** 0.06
21956 C 32.48844644532798 16.70234301736255 21.125790983636904 C 0.0 **** -0.24
21957 H 32.65265295638159 15.786384865258313 21.694420746432 H 0.0 **** 0.06
21958 H 32.098873525252884 16.451177614794148 20.138835673138544 H 0.0 **** 0.06
21959 H 33.432303520135406 17.237329566661273 21.018874671401306 H 0.0 **** 0.06
21960 H 31.77090296188291 17.331865351744526 21.651549310021608 H 0.0 **** 0.06
21961 C 94.10798557892582 103.85998776355825 85.65033372310188 C 0.0 **** -0.24
21962 H 93.38236334246494 103.41807294976797 84.96682251229629 H 0.0 **** 0.06
21963 H 94.08880440591884 104.94494157827097 85.54717768872871 H 0.0 **** 0.06
21964 H 95.10431224696742 103.48835472535896 85.41177576734418 H 0.0 **** 0.06
21965 H 93.85408309575024 103.58846879204066 86.67498724529457 H 0.0 **** 0.06
21966 C 49.074043533170176 95.08988734862162 7.573972011998521 C 0.0 **** -0.24
21967 H 49.59740556783328 94.30688362938814 8.122568596614158 H 0.0 **** 0.06
21968 H 48.35566912983708 94.63505895513784 6.891231753827043 H 0.0 **** 0.06
21969 H 49.794095920397666 95.6788388068253 7.0050830544413145 H 0.0 **** 0.06
21970 H 48.54924682841501 95.7365917232608 8.276552037285285 H 0.0 **** 0.06
21971 C 90.91587860572956 23.666479304816846 28.098364153116393 C 0.0 **** -0.24
21972 H 90.69441722969944 23.102752263654793 27.1923450994704 H 0.0 **** 0.06
21973 H 91.27365708012182 24.660840898272028 27.82946362153575 H 0.0 **** 0.06
21974 H 91.68386855866284 23.14561231404204 28.670467193506283 H 0.0 **** 0.06
21975 H 90.01201479036568 23.75477420806797 28.70095776898347 H 0.0 **** 0.06
21976 C 53.16777704687022 36.19643961732697 31.22071137827814 C 0.0 **** -0.24
21977 H 53.09308072114119 35.12979456793224 31.42972478962787 H 0.0 **** 0.06
21978 H 53.42928252615659 36.727697330111084 32.13623801647003 H 0.0 **** 0.06
21979 H 52.211297774518755 36.56133906556434 30.848142467038628 H 0.0 **** 0.06
21980 H 53.93849166839186 36.366022461935074 30.469040254855628 H 0.0 **** 0.06
21981 C 23.366567333647225 15.868347065627091 20.011250721038095 C 0.0 **** -0.24
21982 H 22.388793138825946 16.350539388718573 20.02947404507205 H 0.0 **** 0.06
21983 H 24.008430186622846 16.320042112403797 20.767612754649463 H 0.0 **** 0.06
21984 H 23.816434434527693 15.999272591905594 19.026556853360603 H 0.0 **** 0.06
21985 H 23.25149989576144 14.805347755630692 20.218814507034324 H 0.0 **** 0.06
21986 C 106.9215404768297 88.41505581189887 60.59862247067454 C 0.0 **** -0.24
21987 H 107.80641078806786 87.79414034693639 60.459204486292464 H 0.0 **** 0.06
21988 H 107.225236741401 89.44995160958467 60.755048525712084 H 0.0 **** 0.06
21989 H 106.36570303093636 88.06325153975513 61.46760080090485 H 0.0 **** 0.06
21990 H 106.28999421111351 88.35073532653632 59.7126867838287 H 0.0 **** 0.06
21991 C 26.653330972244486 92.42011189230618 64.06950915634326 C 0.0 **** -0.24
21992 H 26.489897364686517 91.35809528676444 63.89035006862042 H 0.0 **** 0.06
21993 H 25.72453753556203 92.96441826242298 63.89391225169618 H 0.0 **** 0.06
21994 H 27.423787801919147 92.7883516304243 63.39231965796154 H 0.0 **** 0.06
21995 H 26.97351496073358 92.56991496744104 65.10028269274108 H 0.0 **** 0.06
21996 C 37.585977852604515 15.260442292581502 29.154578768466592 C 0.0 **** -0.24
21997 H 37.90857049875587 16.115376614583 28.558644835216853 H 0.0 **** 0.06
21998 H 36.80599467584309 15.575528780755661 29.847784810346866 H 0.0 **** 0.06
21999 H 38.43416220533739 14.867652186240832 29.714367164210557 H 0.0 **** 0.06
22000 H 37.19532612381935 14.485055862288704 28.495156292351425 H 0.0 **** 0.06
22001 C 15.592286298896482 24.380452738027575 94.74054193678705 C 0.0 **** -0.24
22002 H 16.111705599515403 23.62450667728074 94.15089369587798 H 0.0 **** 0.06
22003 H 14.70951500617332 23.93825303311976 95.20087449173423 H 0.0 **** 0.06
22004 H 15.290554772473172 25.20250244929524 94.09054787464225 H 0.0 **** 0.06
22005 H 16.25882182060431 24.75656810131915 95.51670654443745 H 0.0 **** 0.06
22006 C 39.123852723959914 45.97981238100351 87.26817330048853 C 0.0 **** -0.24
22007 H 38.788740428782404 45.99651687155262 88.30494499273789 H 0.0 **** 0.06
22008 H 38.31635387901639 45.61757536114135 86.63148982605789 H 0.0 **** 0.06
22009 H 39.9851716465015 45.318818169208285 87.17565199814335 H 0.0 **** 0.06
22010 H 39.404900355095975 46.98750350598759 86.96137090234953 H 0.0 **** 0.06
22011 C 67.87340468420062 28.865806619997613 58.05706789036543 C 0.0 **** -0.24
22012 H 67.79180928834609 29.583360786790536 57.240037217195834 H 0.0 **** 0.06
22013 H 67.47306840488397 27.903297684802453 57.7365755485842 H 0.0 **** 0.06
22014 H 67.30702937967793 29.227636001273083 58.91592843670571 H 0.0 **** 0.06
22015 H 68.9207823116003 28.749897347157514 58.33618260009041 H 0.0 **** 0.06
22016 C 27.356140441249465 87.48554212641704 104.53614778219111 C 0.0 **** -0.24
22017 H 27.322391333565065 86.9756453868041 103.57377304427662 H 0.0 **** 0.06
22018 H 27.726084916816433 86.79903427090483 105.29829209785736 H 0.0 **** 0.06
22019 H 26.354916431454456 87.82141566047966 104.80577587343801 H 0.0 **** 0.06
22020 H 28.021717650547913 88.34583157422398 104.4680310487692 H 0.0 **** 0.06
22021 C 98.6830278929504 75.64999798721601 28.840985989737028 C 0.0 **** -0.24
22022 H 98.71987942998193 76.73754173680652 28.778885961507463 H 0.0 **** 0.06
22023 H 98.61478969201188 75.34765011478925 29.886209505599403 H 0.0 **** 0.06
22024 H 99.58709626416002 75.23060264635103 28.39895904802021 H 0.0 **** 0.06
22025 H 97.8103813632402 75.2847471743222 28.29858688257159 H 0.0 **** 0.06
22026 C 75.47253599335347 55.21917579688673 28.160452316349563 C 0.0 **** -0.24
22027 H 76.17650936478456 55.61118088285912 27.425984892108204 H 0.0 **** 0.06
22028 H 75.00469549535588 54.31612354762609 27.76928901105009 H 0.0 **** 0.06
22029 H 74.70609989399495 55.967439189350785 28.363591402883912 H 0.0 **** 0.06
22030 H 76.00364532869116 54.98339973048439 29.082418347863722 H 0.0 **** 0.06
22031 C 43.894960431548384 3.646029069711574 89.03007799345022 C 0.0 **** -0.24
22032 H 44.64505563163834 3.8470887641802847 88.26546238172594 H 0.0 **** 0.06
22033 H 44.36118760498198 3.685773053952005 90.01465278152543 H 0.0 **** 0.06
22034 H 43.467565617022785 2.656053400096255 88.86906328530003 H 0.0 **** 0.06
22035 H 43.10573097650507 4.396147752143122 88.97102090429104 H 0.0 **** 0.06
22036 C 45.39511931303525 56.27310174217075 56.861625336783284 C 0.0 **** -0.24
22037 H 45.235991044118464 57.33207254719974 56.65977177375748 H 0.0 **** 0.06
22038 H 44.58836341711418 55.89864891747237 57.491491080301536 H 0.0 **** 0.06
22039 H 46.3481043618537 56.14034625400603 57.37367253693912 H 0.0 **** 0.06
22040 H 45.40717300281972 55.72244528373045 55.92131687186817 H 0.0 **** 0.06
22041 C 48.05759276052186 18.725612270721342 49.10961714888117 C 0.0 **** -0.24
22042 H 46.97382983537193 18.746051171993003 49.22142056956375 H 0.0 **** 0.06
22043 H 48.32002969485171 18.950276789303047 48.07553368932412 H 0.0 **** 0.06
22044 H 48.43110374362618 17.735669189308794 49.37270484269533 H 0.0 **** 0.06
22045 H 48.504139302195654 19.470219122053095 49.768229069620816 H 0.0 **** 0.06
22046 C 88.95367536997868 68.53442587105746 43.14723312523148 C 0.0 **** -0.24
22047 H 88.00237165034265 68.87393966727734 42.737911169830596 H 0.0 **** 0.06
22048 H 89.0432897833284 68.86835491934335 44.18165498480619 H 0.0 **** 0.06
22049 H 89.77201713568513 68.95024918743889 42.5585909279628 H 0.0 **** 0.06
22050 H 88.99682509637931 67.44615892193849 43.1121763444599 H 0.0 **** 0.06
22051 C 6.864117144458078 28.50084637020808 30.494090226172602 C 0.0 **** -0.24
22052 H 6.972515897789606 27.601355184590204 31.099651249255203 H 0.0 **** 0.06
22053 H 7.8302112275214455 28.76978545593721 30.06612890833867 H 0.0 **** 0.06
22054 H 6.502432019486662 29.317963850566883 31.118933244691675 H 0.0 **** 0.06
22055 H 6.149901146306746 28.314344027550277 29.691534127717603 H 0.0 **** 0.06
22056 C 56.56790727839018 23.090063139655115 86.63760979719629 C 0.0 **** -0.24
22057 H 55.78961524304832 23.57579855561724 87.22701417868018 H 0.0 **** 0.06
22058 H 56.5488485897614 22.016146258538356 86.82562098590302 H 0.0 **** 0.06
22059 H 57.54081200131634 23.491639993302584 86.92021424296244 H 0.0 **** 0.06
22060 H 56.391495715506615 23.276333649903194 85.57866358734486 H 0.0 **** 0.06
22061 C 8.661043764026715 55.769025779118635 2.185688814789259 C 0.0 **** -0.24
22062 H 8.763427229494482 55.49707660699784 1.1353968983056575 H 0.0 **** 0.06
22063 H 8.010914651064525 55.05119904754821 2.6856455861337594 H 0.0 **** 0.06
22064 H 8.226485246175912 56.76632451889395 2.26120724552446 H 0.0 **** 0.06
22065 H 9.6417967161143 55.76296148100607 2.6598224097686227 H 0.0 **** 0.06
22066 C 67.73909723558188 85.18303811760087 86.53649800943909 C 0.0 **** -0.24
22067 H 68.52031690729252 85.07652200118147 87.28906362117539 H 0.0 **** 0.06
22068 H 68.03203567665331 85.9452186645835 85.8143956968028 H 0.0 **** 0.06
22069 H 66.80761835798204 85.4773612942776 87.01855584835398 H 0.0 **** 0.06
22070 H 67.59710494790568 84.2309239565139 86.02405509924115 H 0.0 **** 0.06
22071 C 70.18558357404596 98.28844053460293 85.02501469683926 C 0.0 **** -0.24
22072 H 70.11786969286877 97.6181791746543 85.88171615397283 H 0.0 **** 0.06
22073 H 70.10082670018834 97.71190727358967 84.10436629038716 H 0.0 **** 0.06
22074 H 71.14508435051506 98.80558207476825 85.04387648600022 H 0.0 **** 0.06
22075 H 69.37850275749112 99.01959921099234 85.07175238521091 H 0.0 **** 0.06
22076 C 80.9037774105202 37.81291570325453 19.410768540935194 C 0.0 **** -0.24
22077 H 81.76679406438518 37.329320859531094 19.869578085727184 H 0.0 **** 0.06
22078 H 81.22663735506654 38.372494611917716 18.532635986355118 H 0.0 **** 0.06
22079 H 80.4450822504786 38.49309707957397 20.12860272809615 H 0.0 **** 0.06
22080 H 80.17892978581591 37.05542391166614 19.113596973392657 H 0.0 **** 0.06
22081 C 35.20968134234744 80.93172412972763 72.94166648013703 C 0.0 **** -0.24
22082 H 34.51504117674014 81.6479424447756 73.38010599710236 H 0.0 **** 0.06
22083 H 34.8937837173452 80.69623910987389 71.92455909102125 H 0.0 **** 0.06
22084 H 35.21705733577471 80.02061190699828 73.53981359295989 H 0.0 **** 0.06
22085 H 36.21088062372857 81.36178773438041 72.92196520028818 H 0.0 **** 0.06
22086 C 74.8515556622541 16.923357425945625 1.1158963563157158 C 0.0 **** -0.24
22087 H 74.05583082830414 16.934273569455044 0.3716997147021175 H 0.0 **** 0.06
22088 H 74.85153987583487 17.867589123502697 1.6620551717078342 H 0.0 **** 0.06
22089 H 75.81227627382023 16.789937868427415 0.6187816996502988 H 0.0 **** 0.06
22090 H 74.68610680700567 16.10118099288968 1.8126549142817794 H 0.0 **** 0.06
22091 C 101.49944525779682 101.5616907591634 26.46667447265395 C 0.0 **** -0.24
22092 H 101.73726091953972 101.02933117601808 27.38761141287773 H 0.0 **** 0.06
22093 H 102.41432937458289 101.97245859010832 26.038637385856703 H 0.0 **** 0.06
22094 H 100.80334815961817 102.37186658235338 26.68431371241536 H 0.0 **** 0.06
22095 H 101.04302640210052 100.87171072692222 25.756268043604564 H 0.0 **** 0.06
22096 C 97.53352633189405 99.99325221598696 105.13755237675491 C 0.0 **** -0.24
22097 H 97.45419260456015 99.83677797580818 104.06227670030302 H 0.0 **** 0.06
22098 H 96.70783207698253 100.6190822842659 105.47644851926879 H 0.0 **** 0.06
22099 H 98.47920913866358 100.48630211402609 105.36359155574758 H 0.0 **** 0.06
22100 H 97.49426977432103 99.03099256067503 105.64804639347021 H 0.0 **** 0.06
22101 C 70.96159806988321 44.264795037698796 31.183493949163562 C 0.0 **** -0.24
22102 H 71.94923166899775 43.80813880187176 31.250790594001103 H 0.0 **** 0.06
22103 H 70.9194766365917 45.13640193830777 31.837340340042942 H 0.0 **** 0.06
22104 H 70.20575780930197 43.54260386159296 31.49128810711659 H 0.0 **** 0.06
22105 H 70.77326378224748 44.57234796389363 30.154893319278358 H 0.0 **** 0.06
22106 C 88.79709425240458 69.15370296039158 39.15293030112241 C 0.0 **** -0.24
22107 H 89.03542342623723 68.21265278128637 38.6573411337578 H 0.0 **** 0.06
22108 H 89.06883422418218 69.9857470797327 38.502401366138116 H 0.0 **** 0.06
22109 H 89.35537530896238 69.2238854878959 40.08647973142274 H 0.0 **** 0.06
22110 H 87.72821995248478 69.19147390948878 39.364713168280474 H 0.0 **** 0.06
22111 C 6.9767185505072575 18.09887882537562 29.566540803197597 C 0.0 **** -0.24
22112 H 6.9802904610681455 18.28246798666996 28.492023639692093 H 0.0 **** 0.06
22113 H 6.313333757027706 18.813760790608804 30.05351540590641 H 0.0 **** 0.06
22114 H 7.9875272287261865 18.214626006112592 29.958080438467846 H 0.0 **** 0.06
22115 H 6.625674086372232 17.086273564583667 29.760700902172175 H 0.0 **** 0.06
22116 C 71.82803029476433 25.774934407456584 7.939287355388188 C 0.0 **** -0.24
22117 H 70.99579307765511 25.079565643182264 8.045270014831644 H 0.0 **** 0.06
22118 H 71.9536380327183 26.33444735484011 8.867228576914073 H 0.0 **** 0.06
22119 H 71.62254883383409 26.465544289339988 7.121932976613365 H 0.0 **** 0.06
22120 H 72.74103985308136 25.218789766458514 7.723839896790338 H 0.0 **** 0.06
22121 C 62.11392722148673 64.28807868030765 73.5805758891575 C 0.0 **** -0.24
22122 H 61.557012023090635 63.39185306322884 73.30519610915512 H 0.0 **** 0.06
22123 H 63.14353273436845 64.19525769088173 73.23505365482143 H 0.0 **** 0.06
22124 H 62.10355602078337 64.40300604619694 74.66411452063127 H 0.0 **** 0.06
22125 H 61.65199805956905 65.15988013072757 73.11724928402784 H 0.0 **** 0.06
22126 C 44.60393427413327 3.434801584672357 30.579703887416485 C 0.0 **** -0.24
22127 H 44.782578007469624 3.9455129694748052 29.6335785516834 H 0.0 **** 0.06
22128 H 45.28676250614408 3.82365388308466 31.336071807663302 H 0.0 **** 0.06
22129 H 44.77257769117803 2.3659963685500998 30.45294975831996 H 0.0 **** 0.06
22130 H 43.57567524896812 3.605630188677935 30.89640368834762 H 0.0 **** 0.06
22131 C 71.43450236213897 23.270989559808427 53.59759667232106 C 0.0 **** -0.24
22132 H 70.49757610303948 23.54082840910283 53.11079792572126 H 0.0 **** 0.06
22133 H 72.27078611393802 23.55754583399755 52.959286487319744 H 0.0 **** 0.06
22134 H 71.45852551029515 22.193663733665886 53.7651880655604 H 0.0 **** 0.06
22135 H 71.51049554983354 23.7892460245683 54.55257313716496 H 0.0 **** 0.06
22136 C 53.80697640823226 63.74060407263744 103.89939453888641 C 0.0 **** -0.24
22137 H 54.494525837348824 63.299192208601085 104.62116266835793 H 0.0 **** 0.06
22138 H 52.917385722327104 63.11528188291024 103.81697798781155 H 0.0 **** 0.06
22139 H 54.294761231352055 63.809780982872326 102.92772055874545 H 0.0 **** 0.06
22140 H 53.520459268521066 64.73730390999901 104.23448588560666 H 0.0 **** 0.06
22141 C 22.661183843315996 19.508427817567455 52.747221248064534 C 0.0 **** -0.24
22142 H 21.58632070881785 19.44864557136398 52.918756083251026 H 0.0 **** 0.06
22143 H 23.17091631699998 19.681854892924097 53.69488823172051 H 0.0 **** 0.06
22144 H 22.875583046001196 20.329880352937188 52.06284370024542 H 0.0 **** 0.06
22145 H 23.01215679098067 18.572770332617424 52.311604514134814 H 0.0 **** 0.06
22146 C 1.124359937799733 101.34695190262539 92.56616854559627 C 0.0 **** -0.24
22147 H 2.113948460288701 101.70168758318846 92.27688313043726 H 0.0 **** 0.06
22148 H 1.2234278911155974 100.58873662578111 93.34288277382748 H 0.0 **** 0.06
22149 H 0.6246814673261119 100.91710527852285 91.69877122837511 H 0.0 **** 0.06
22150 H 0.5362432105272985 102.18311862564815 92.94570094106345 H 0.0 **** 0.06
22151 C 93.05299471799941 63.67856570399442 10.712637387353519 C 0.0 **** -0.24
22152 H 92.00449664390163 63.812528364246816 10.447311856623996 H 0.0 **** 0.06
22153 H 93.677239058628 64.2413946517888 10.018228667856064 H 0.0 **** 0.06
22154 H 93.30871858576037 62.62022356458721 10.655557492713825 H 0.0 **** 0.06
22155 H 93.2207311496237 64.03889088655072 11.72664627320787 H 0.0 **** 0.06
22156 C 78.21388867429692 37.34238021943332 23.350691866097407 C 0.0 **** -0.24
22157 H 78.29774150555153 36.40787399745619 22.794036864390478 H 0.0 **** 0.06
22158 H 77.45701086943535 37.97454065900229 22.885860656846205 H 0.0 **** 0.06
22159 H 79.17426244087059 37.85772633274854 23.339899692704364 H 0.0 **** 0.06
22160 H 77.92803739281572 37.12712497179939 24.379272433473318 H 0.0 **** 0.06
22161 C 19.151363450108647 21.460559301954504 98.7913817888251 C 0.0 **** -0.24
22162 H 20.06844650387106 20.950817095025286 99.08843644493317 H 0.0 **** 0.06
22163 H 19.360751795296494 22.51706861408786 98.62561861624602 H 0.0 **** 0.06
22164 H 18.406822617356454 21.35662670898421 99.58098856029271 H 0.0 **** 0.06
22165 H 18.77038622420426 21.016092574731374 97.87204151771539 H 0.0 **** 0.06
22166 C 66.81624643087545 46.42092410594259 97.00091801242993 C 0.0 **** -0.24
22167 H 67.73775426743967 46.97169755242195 96.8126395619642 H 0.0 **** 0.06
22168 H 66.6267465206554 46.386906504737794 98.07348335707024 H 0.0 **** 0.06
22169 H 66.9155117425817 45.405347927162126 96.61615789872752 H 0.0 **** 0.06
22170 H 65.98652731049503 46.92023602604582 96.49986044503044 H 0.0 **** 0.06
22171 C 27.228730462288752 70.44831862619024 7.924170976566572 C 0.0 **** -0.24
22172 H 27.895541165403586 71.04754331676189 7.304475808568526 H 0.0 **** 0.06
22173 H 27.348744069841644 70.73563356147547 8.969338324893187 H 0.0 **** 0.06
22174 H 27.47389827818995 69.39309767109744 7.8058057922744695 H 0.0 **** 0.06
22175 H 26.196395986485385 70.61920275160233 7.617239290947921 H 0.0 **** 0.06
22176 C 69.51214748865931 25.361056389955696 42.75628570497335 C 0.0 **** -0.24
22177 H 68.53584221015831 25.531820782133927 43.20916025210555 H 0.0 **** 0.06
22178 H 70.28546082643061 25.803433591481085 43.38471373013135 H 0.0 **** 0.06
22179 H 69.5392815437956 25.818689382197363 41.76834564807193 H 0.0 **** 0.06
22180 H 69.68679445038083 24.288869796681457 42.66505398639606 H 0.0 **** 0.06
22181 C 36.697131937698984 64.53277623370133 52.93532836867246 C 0.0 **** -0.24
22182 H 36.82879789862582 63.5323239109008 52.52192887754387 H 0.0 **** 0.06
22183 H 35.88322639604441 64.52111709034352 53.66114774073071 H 0.0 **** 0.06
22184 H 36.45762688853614 65.22877615381816 52.13173812614872 H 0.0 **** 0.06
22185 H 37.61785400764069 64.84691011157346 53.426290289639496 H 0.0 **** 0.06
22186 C 15.320891555191793 6.451675127406171 29.2944588125049 C 0.0 **** -0.24
22187 H 14.37187379307062 5.916081976117043 29.261109872609012 H 0.0 **** 0.06
22188 H 15.567862874447314 6.815801616604299 28.29711988372759 H 0.0 **** 0.06
22189 H 16.10566655609506 5.778985817656515 29.640616520866672 H 0.0 **** 0.06
22190 H 15.237348330915609 7.295565170825075 29.980114006187875 H 0.0 **** 0.06
22191 C 72.21502833827616 27.614263312895744 75.23816047899345 C 0.0 **** -0.24
22192 H 72.56176674356755 28.273802978595455 74.44228498777568 H 0.0 **** 0.06
22193 H 71.70964795935986 28.20484586777168 76.00352566952671 H 0.0 **** 0.06
22194 H 73.06645499995129 27.097687579519487 75.67940636760042 H 0.0 **** 0.06
22195 H 71.51979476772682 26.88214538242333 74.82602392867051 H 0.0 **** 0.06
22196 C 5.2781201585316495 76.051786515466 96.45721336651638 C 0.0 **** -0.24
22197 H 6.358620549348025 75.91261832216505 96.4886771502845 H 0.0 **** 0.06
22198 H 4.963425044149741 76.64200829395044 97.31765399967793 H 0.0 **** 0.06
22199 H 4.786695979284119 75.07990628311252 96.48288210712263 H 0.0 **** 0.06
22200 H 5.006085214843743 76.57318908572093 95.53923502551766 H 0.0 **** 0.06
22201 C 35.77658368224548 101.52742464374175 39.458831152152754 C 0.0 **** -0.24
22202 H 36.32623196334677 101.81423423123695 38.562842957684666 H 0.0 **** 0.06
22203 H 34.70676666885669 101.55931768065206 39.25412838711304 H 0.0 **** 0.06
22204 H 36.01283280599007 102.22121035734553 40.266803732801634 H 0.0 **** 0.06
22205 H 36.06198585789216 100.51726480345478 39.75216636933226 H 0.0 **** 0.06
22206 C 5.424759591557233 0.5553398725154608 21.931491545823633 C 0.0 **** -0.24
22207 H 5.672007182134166 -0.11564935928551279 22.755157756370707 H 0.0 **** 0.06
22208 H 5.9708165532568955 1.4919195362517286 22.04998735045214 H 0.0 **** 0.06
22209 H 4.353844968051931 0.755899501140064 21.93613033658312 H 0.0 **** 0.06
22210 H 5.70371514814633 0.08848588061246687 20.98727813157278 H 0.0 **** 0.06
22211 C 81.3331438287703 83.40070720084633 76.34487561152832 C 0.0 **** -0.24
22212 H 82.2772621385319 83.92147871661192 76.50565659376213 H 0.0 **** 0.06
22213 H 81.0304511800938 82.90462925132928 77.26766093248256 H 0.0 **** 0.06
22214 H 81.45720899423223 82.65882500644251 75.55599063348279 H 0.0 **** 0.06
22215 H 80.56775413314125 84.11923227137132 76.05064572123402 H 0.0 **** 0.06
22216 C 58.05622606113049 101.62840710248884 51.717983418291055 C 0.0 **** -0.24
22217 H 57.84066891079801 101.21256707423566 50.73459236327088 H 0.0 **** 0.06
22218 H 57.20941882316518 101.4503147522816 52.3810297938021 H 0.0 **** 0.06
22219 H 58.2291015424052 102.70094286063272 51.629887035095635 H 0.0 **** 0.06
22220 H 58.945726740080445 101.14933170588 52.12809097734561 H 0.0 **** 0.06
22221 C 1.4935776648098624 77.59189108347529 32.685414817684375 C 0.0 **** -0.24
22222 H 1.6765888509928573 77.20207887458373 31.684626549658162 H 0.0 **** 0.06
22223 H 2.380539883492986 77.44146120215281 33.30225663055174 H 0.0 **** 0.06
22224 H 0.6477468412607976 77.0685871299708 33.13129378403946 H 0.0 **** 0.06
22225 H 1.2699449338369249 78.65767210541135 32.625139207622055 H 0.0 **** 0.06
22226 C 56.54020994004443 87.13125631995084 41.34896016694339 C 0.0 **** -0.24
22227 H 55.93419651672952 86.91475161577577 42.22826572682753 H 0.0 **** 0.06
22228 H 55.8945637195854 87.20620930798222 40.473098336711516 H 0.0 **** 0.06
22229 H 57.26383039068522 86.33016032511166 41.19904185042578 H 0.0 **** 0.06
22230 H 57.0671542707492 88.07452548352808 41.49358669518698 H 0.0 **** 0.06
22231 C 91.98035896078551 88.7510728119966 37.6216641858432 C 0.0 **** -0.24
22232 H 90.94725917074797 88.99494829278753 37.37217975320351 H 0.0 **** 0.06
22233 H 92.4143716029419 89.56272667883022 38.20614850842871 H 0.0 **** 0.06
22234 H 92.5530898433423 88.61686949510595 36.703905677516815 H 0.0 **** 0.06
22235 H 92.00542297360599 87.82905032375729 38.20306441230866 H 0.0 **** 0.06
22236 C 7.665156124634507 7.100014924446134 80.94578383930096 C 0.0 **** -0.24
22237 H 8.604645526146442 7.503804857247195 80.56829447252679 H 0.0 **** 0.06
22238 H 7.846837757779497 6.578886232056721 81.88697066883927 H 0.0 **** 0.06
22239 H 7.250616776184245 6.403097911913539 80.2182354847975 H 0.0 **** 0.06
22240 H 6.961327999084574 7.915158584887649 81.11194825554304 H 0.0 **** 0.06
22241 C 20.800215084003668 81.56855530694882 89.39518122362534 C 0.0 **** -0.24
22242 H 19.77084727253083 81.71079402126577 89.72555973935306 H 0.0 **** 0.06
22243 H 21.073118048786995 80.51840136487046 89.50253842585823 H 0.0 **** 0.06
22244 H 21.4648863802322 82.1817113144096 90.00405285226827 H 0.0 **** 0.06
22245 H 20.889323922612846 81.86322480782887 88.34990981063362 H 0.0 **** 0.06
22246 C 47.55685527498002 50.95780326436389 62.13807853251768 C 0.0 **** -0.24
22247 H 47.62767343191712 50.257847159700276 62.971112831349785 H 0.0 **** 0.06
22248 H 47.31464273720553 50.41079164787223 61.22532424723599 H 0.0 **** 0.06
22249 H 48.51018648392625 51.46979707787807 62.01252481138823 H 0.0 **** 0.06
22250 H 46.77472418828103 51.688116268093324 62.34286302812811 H 0.0 **** 0.06
22251 C 1.2161684635128571 85.22898474494593 81.2250895868475 C 0.0 **** -0.24
22252 H 2.166782584579689 85.4743064632753 81.69870115070381 H 0.0 **** 0.06
22253 H 1.3497193681181283 84.37409810427818 80.56206782335659 H 0.0 **** 0.06
22254 H 0.8660126282485923 86.08519730716961 80.64909846577478 H 0.0 **** 0.06
22255 H 0.48192696220158027 84.98264037222702 81.99269415706473 H 0.0 **** 0.06
22256 C 33.952275234869404 78.57228663371396 9.300640080150826 C 0.0 **** -0.24
22257 H 33.425267651398826 78.51043957538793 8.348596066404678 H 0.0 **** 0.06
22258 H 33.27159476159488 78.93990377937982 10.069671080020203 H 0.0 **** 0.06
22259 H 34.7964490145182 79.25588840911436 9.20497841189359 H 0.0 **** 0.06
22260 H 34.31578951196559 77.58291477097376 9.579314762284968 H 0.0 **** 0.06
22261 C 66.88190797280954 90.42848671641116 24.37019022895356 C 0.0 **** -0.24
22262 H 66.03227264987711 90.35309907175395 23.69067757729573 H 0.0 **** 0.06
22263 H 67.65548266176275 89.72313995824925 24.062916530127126 H 0.0 **** 0.06
22264 H 66.5585016252673 90.1947985799248 25.383771491402513 H 0.0 **** 0.06
22265 H 67.28115368152055 91.44213842454661 24.340025235060125 H 0.0 **** 0.06
22266 C 39.089872476340474 70.3684765049702 2.2271596286064295 C 0.0 **** -0.24
22267 H 39.24777112289365 69.33838320322388 2.5455000657123037 H 0.0 **** 0.06
22268 H 38.74090268261034 70.37984244135544 1.193876591278027 H 0.0 **** 0.06
22269 H 40.02869471135929 70.91850650427261 2.2992895446407147 H 0.0 **** 0.06
22270 H 38.3437823946681 70.83729072229164 2.8681757322747785 H 0.0 **** 0.06
22271 C 59.98978220925454 60.412497872327606 9.46801371103222 C 0.0 **** -0.24
22272 H 61.024507583057186 60.68381709235007 9.259056450732437 H 0.0 **** 0.06
22273 H 59.967416362874985 59.50326311678916 10.069415266300135 H 0.0 **** 0.06
22274 H 59.46250344470235 60.24123248109976 8.530608231244933 H 0.0 **** 0.06
22275 H 59.505673571525165 61.22184295136441 10.014981952020936 H 0.0 **** 0.06
22276 C 106.07558960955366 20.497431584953546 59.66775420724569 C 0.0 **** -0.24
22277 H 105.75966211020672 19.56775845695512 60.13920353386486 H 0.0 **** 0.06
22278 H 106.97348581861588 20.31684968939541 59.075165367036085 H 0.0 **** 0.06
22279 H 106.29126488425652 21.239643142407644 60.43603672095152 H 0.0 **** 0.06
22280 H 105.28032714802079 20.865193473245753 59.02011184757858 H 0.0 **** 0.06
22281 C 78.43125418063232 45.414674334119724 34.402330616397535 C 0.0 **** -0.24
22282 H 77.54676102420163 45.56038183570621 33.781909741276024 H 0.0 **** 0.06
22283 H 79.17899745675501 46.16802443623447 34.15022035342156 H 0.0 **** 0.06
22284 H 78.841331774796 44.421503139643676 34.221468328985736 H 0.0 **** 0.06
22285 H 78.15831135803882 45.51011251135546 35.45287837416652 H 0.0 **** 0.06
22286 C 26.557188223279724 66.09275399633198 7.991473880236356 C 0.0 **** -0.24
22287 H 25.54025340883598 65.77331191981708 7.766618060360543 H 0.0 **** 0.06
22288 H 27.029723371768284 66.46745155446507 7.082913926497923 H 0.0 **** 0.06
22289 H 27.12736570888063 65.2456646109727 8.37456934741752 H 0.0 **** 0.06
22290 H 26.532694740255664 66.88359630889785 8.74118807197442 H 0.0 **** 0.06
22291 C 55.966406202819144 86.23208242274453 101.07792140446382 C 0.0 **** -0.24
22292 H 55.151284130606314 85.51031919219979 101.03073364646453 H 0.0 **** 0.06
22293 H 56.549965886997654 86.06212007107995 101.98232547419505 H 0.0 **** 0.06
22294 H 55.555692244289446 87.24196030894797 101.09470229088816 H 0.0 **** 0.06
22295 H 56.607052938707 86.11451412179802 100.20398301212981 H 0.0 **** 0.06
22296 C 74.8586175293174 85.85360032839465 36.90302970085128 C 0.0 **** -0.24
22297 H 74.01301368076437 85.17547104323172 37.01493427547507 H 0.0 **** 0.06
22298 H 75.28590738297089 86.06521671354102 37.88370130644114 H 0.0 **** 0.06
22299 H 74.521791438023 86.783042559404 36.44429865846428 H 0.0 **** 0.06
22300 H 75.61527604545154 85.38910200612813 36.269667144240884 H 0.0 **** 0.06
22301 C 36.119562274697756 66.69810510616948 9.336980782383506 C 0.0 **** -0.24
22302 H 36.99898691591511 67.28196726768235 9.064436909008819 H 0.0 **** 0.06
22303 H 35.2791281690524 66.99267798693101 8.707310020068888 H 0.0 **** 0.06
22304 H 35.872278483443296 66.88028252578792 10.382847877826393 H 0.0 **** 0.06
22305 H 36.32798860198113 65.63768968653598 9.191934204489172 H 0.0 **** 0.06
22306 C 83.88085336284453 105.78696128434103 41.72970678241472 C 0.0 **** -0.24
22307 H 84.2257040887097 105.13505389074919 40.92735862304227 H 0.0 **** 0.06
22308 H 82.95903459285927 106.28250616735795 41.42378142010301 H 0.0 **** 0.06
22309 H 84.6429918798093 106.53584972418571 41.94393521939833 H 0.0 **** 0.06
22310 H 83.6945623798772 105.19301503785584 42.6250661744632 H 0.0 **** 0.06
22311 C 51.73090171163078 107.55762299586178 62.36606972204969 C 0.0 **** -0.24
22312 H 52.117693511598794 108.57691645605351 62.36515764970777 H 0.0 **** 0.06
22313 H 51.55825538270613 107.23624406870226 63.393358244809946 H 0.0 **** 0.06
22314 H 52.455230405100174 106.89383201952185 61.893758003918606 H 0.0 **** 0.06
22315 H 50.792608742414906 107.52488977242325 61.81219003246315 H 0.0 **** 0.06
22316 C 33.6516322400347 11.081995817348911 67.0270417437488 C 0.0 **** -0.24
22317 H 34.218369525071495 11.997163152665536 67.19993907422273 H 0.0 **** 0.06
22318 H 34.331331711191865 10.228901577860682 67.02425008584737 H 0.0 **** 0.06
22319 H 33.14424352367993 11.144889581547574 66.0643382935904 H 0.0 **** 0.06
22320 H 32.91410124649144 10.956486034594178 67.81900394751015 H 0.0 **** 0.06
22321 C 55.73331088420607 4.175791824273006 10.981191516627732 C 0.0 **** -0.24
22322 H 56.641576615938106 4.2366772636609085 10.381906799677882 H 0.0 **** 0.06
22323 H 55.93536018531277 4.55337042519821 11.984090513311106 H 0.0 **** 0.06
22324 H 55.407530919855446 3.1378709586307707 11.041586078997232 H 0.0 **** 0.06
22325 H 54.95077463224608 4.776234980897911 10.517361925171095 H 0.0 **** 0.06
22326 C 103.75898148459811 20.826336990719554 69.21909238317056 C 0.0 **** -0.24
22327 H 103.90618934463203 21.18076404700119 68.19885703074499 H 0.0 **** 0.06
22328 H 102.85036449750294 21.268696076754225 69.62916742357498 H 0.0 **** 0.06
22329 H 104.61264014247524 21.11663041410445 69.83098816978776 H 0.0 **** 0.06
22330 H 103.66534624691525 19.74017162624159 69.21624144867513 H 0.0 **** 0.06
22331 C 40.746389939290225 62.39287069932678 109.31818080195745 C 0.0 **** -0.24
22332 H 39.85629853932005 62.26614813704373 108.70112034793999 H 0.0 **** 0.06
22333 H 40.78487630807865 61.60192677997489 110.06702749282601 H 0.0 **** 0.06
22334 H 40.70825380680833 63.36290461593677 109.81461683744271 H 0.0 **** 0.06
22335 H 41.63486343010101 62.341422060054214 108.68836194961114 H 0.0 **** 0.06
22336 C 2.518378318707275 71.53038820846949 8.617929568229727 C 0.0 **** -0.24
22337 H 2.436288408804323 72.61188209712887 8.723627491286493 H 0.0 **** 0.06
22338 H 3.477547588214806 71.28156808679117 8.163104594727884 H 0.0 **** 0.06
22339 H 1.7101160940491695 71.16561918889427 7.983600290670438 H 0.0 **** 0.06
22340 H 2.4491895211082433 71.06237428764162 9.600463943099498 H 0.0 **** 0.06
22341 C 36.356847789520515 69.47196016419878 86.49045290247342 C 0.0 **** -0.24
22342 H 36.84344902274799 70.43789152269852 86.62905217727155 H 0.0 **** 0.06
22343 H 35.39124609620234 69.61969317565217 86.00645681940664 H 0.0 **** 0.06
22344 H 36.20873605997576 68.99758052016182 87.46027696071963 H 0.0 **** 0.06
22345 H 36.983736159971585 68.83639269341148 85.8663898130771 H 0.0 **** 0.06
22346 C 28.756700975532254 77.83813265726783 73.44284709704249 C 0.0 **** -0.24
22347 H 28.827133503423937 76.75408813432126 73.53692492276897 H 0.0 **** 0.06
22348 H 27.927226004210382 78.20211419697887 74.0485009054605 H 0.0 **** 0.06
22349 H 28.5886582527136 78.10002820230567 72.39849457022504 H 0.0 **** 0.06
22350 H 29.685762436320204 78.29283370119732 73.78642913796381 H 0.0 **** 0.06
22351 C 9.39280524541104 62.869362703061825 37.23887296189841 C 0.0 **** -0.24
22352 H 8.485082838244708 62.97638470323855 36.646222040768535 H 0.0 **** 0.06
22353 H 10.191481995917954 63.46050108505642 36.788910953818714 H 0.0 **** 0.06
22354 H 9.687606485492267 61.82072027024256 37.265576877610044 H 0.0 **** 0.06
22355 H 9.208147366990659 63.22091185601511 38.25397173775315 H 0.0 **** 0.06
22356 C 23.68226709018765 92.8727222772791 100.04812398941039 C 0.0 **** -0.24
22357 H 23.750592952298632 93.34946171039843 101.02634635202928 H 0.0 **** 0.06
22358 H 24.000726136145147 91.83301717339782 100.12768545982397 H 0.0 **** 0.06
22359 H 24.324715463899963 93.39840812914062 99.34280827360082 H 0.0 **** 0.06
22360 H 22.650421408006537 92.91094288733964 99.69795607223166 H 0.0 **** 0.06
22361 C 108.76062813747667 8.245501779364218 1.2220304600123137 C 0.0 **** -0.24
22362 H 108.4794024048249 9.248118208245955 0.9012794617534645 H 0.0 **** 0.06
22363 H 107.95116025311168 7.550119694752624 0.9946838485306202 H 0.0 **** 0.06
22364 H 108.94699307576214 8.247085250266366 2.2961396177288194 H 0.0 **** 0.06
22365 H 109.66397211497357 7.935904712380648 0.6966694727073124 H 0.0 **** 0.06
22366 C 60.83714800937584 67.74093300078115 27.595721436249192 C 0.0 **** -0.24
22367 H 60.396060861867 66.86679915607169 27.11680911721723 H 0.0 **** 0.06
22368 H 61.92399957088894 67.6640805322667 27.56225125412007 H 0.0 **** 0.06
22369 H 60.50741087834746 67.79290096938126 28.63268891400989 H 0.0 **** 0.06
22370 H 60.520279464852365 68.6406655107532 27.068532108821643 H 0.0 **** 0.06
22371 C 17.197502107915607 39.69761348770578 82.44965027600706 C 0.0 **** -0.24
22372 H 17.4007749088036 38.62722007439956 82.47458923666048 H 0.0 **** 0.06
22373 H 18.132496086480494 40.24136193153993 82.30911975037857 H 0.0 **** 0.06
22374 H 16.737666263120275 40.00272788982372 83.38922093479611 H 0.0 **** 0.06
22375 H 16.520339942896054 39.91939691540989 81.62509988162269 H 0.0 **** 0.06
22376 C 76.94091775488322 5.046918079556837 102.70569129138077 C 0.0 **** -0.24
22377 H 77.10062451908587 5.489394658438629 103.68861044177791 H 0.0 **** 0.06
22378 H 77.87812654557274 5.049427213942646 102.14889935163018 H 0.0 **** 0.06
22379 H 76.19403995444182 5.628058468049435 102.1637767973297 H 0.0 **** 0.06
22380 H 76.58872730355712 4.02133990500799 102.82173532303948 H 0.0 **** 0.06
22381 C 21.37343318471204 53.560648152350126 60.938488708483874 C 0.0 **** -0.24
22382 H 21.13310544090936 53.68002612546894 59.881742585206666 H 0.0 **** 0.06
22383 H 21.903554477997375 54.44555069387445 61.29148984005647 H 0.0 **** 0.06
22384 H 22.005934668257964 52.68232449862148 61.068620614283105 H 0.0 **** 0.06
22385 H 20.454120473840163 53.434519828871174 61.509259753321416 H 0.0 **** 0.06
22386 C 55.499159062857075 69.65218992995746 48.36714806001618 C 0.0 **** -0.24
22387 H 55.82032741032242 69.54946359367072 49.404426774908586 H 0.0 **** 0.06
22388 H 54.806530212338174 68.84753565865105 48.119897874997946 H 0.0 **** 0.06
22389 H 56.368101412339456 69.59806353226021 47.71129869393653 H 0.0 **** 0.06
22390 H 55.002520836348054 70.61336548449793 48.234054504311615 H 0.0 **** 0.06
22391 C 26.32128494495879 81.7387315524524 97.08157108157278 C 0.0 **** -0.24
22392 H 25.40522000920997 81.21748277406255 97.35665930537223 H 0.0 **** 0.06
22393 H 26.559706116108416 82.48033342070619 97.84387474067502 H 0.0 **** 0.06
22394 H 26.181600952175216 82.23697219809472 96.12193754123534 H 0.0 **** 0.06
22395 H 27.138636393774817 81.0217833018167 97.00327239939753 H 0.0 **** 0.06
22396 C 35.24889911806861 83.75830295726269 99.5301889108974 C 0.0 **** -0.24
22397 H 34.297461932911844 83.91613850762332 99.02274821268524 H 0.0 **** 0.06
22398 H 35.83584314046006 83.022916271018 98.98060364738701 H 0.0 **** 0.06
22399 H 35.06542998117868 83.39599899086289 100.54134059977955 H 0.0 **** 0.06
22400 H 35.796058300441516 84.70074332494494 99.57524354856167 H 0.0 **** 0.06
22401 C 95.94979456625649 41.84467727323775 99.70797957186032 C 0.0 **** -0.24
22402 H 96.5624526319258 41.87297323931885 100.60820466569793 H 0.0 **** 0.06
22403 H 95.97896402272283 42.81774683867377 99.21717956003715 H 0.0 **** 0.06
22404 H 94.92099356189942 41.60404697934466 99.97643521681468 H 0.0 **** 0.06
22405 H 96.3353936424306 41.08361868218225 99.03001791487385 H 0.0 **** 0.06
22406 C 104.18808324823472 29.296894303549834 37.807326935587646 C 0.0 **** -0.24
22407 H 105.03996053586427 29.501750993190086 37.158291707911076 H 0.0 **** 0.06
22408 H 103.80175674219606 28.30017624509796 37.594933924114585 H 0.0 **** 0.06
22409 H 103.40780850557698 30.03553380542914 37.626507062418405 H 0.0 **** 0.06
22410 H 104.50446655088037 29.350609714952725 38.84951894069558 H 0.0 **** 0.06
22411 C 104.41716383892106 24.461262799711506 7.3764109264786555 C 0.0 **** -0.24
22412 H 103.48155961620841 24.59944733185324 6.835044499389127 H 0.0 **** 0.06
22413 H 104.79725227625033 23.45689603738839 7.194422018715926 H 0.0 **** 0.06
22414 H 104.24234634058075 24.596412492487218 8.443913750988727 H 0.0 **** 0.06
22415 H 105.147112618648 25.19428271669139 7.033213556201261 H 0.0 **** 0.06
22416 C 73.52229969400932 38.893997569220346 4.6058424346964255 C 0.0 **** -0.24
22417 H 73.0709518742217 38.40105056000584 3.7455208705759606 H 0.0 **** 0.06
22418 H 74.49278830224368 39.30176315735625 4.324369678710923 H 0.0 **** 0.06
22419 H 73.65076763424766 38.171626320281604 5.41234393090415 H 0.0 **** 0.06
22420 H 72.87229920683741 39.702044326229014 4.942877617714551 H 0.0 **** 0.06
22421 C 92.09492918308084 34.82221222546143 62.14345335479402 C 0.0 **** -0.24
22422 H 91.49896935354259 35.114335996658085 61.278057773465605 H 0.0 **** 0.06
22423 H 93.13179772162667 35.121701260128866 61.98887378281711 H 0.0 **** 0.06
22424 H 92.04413474625733 33.74012153682741 62.269117944154004 H 0.0 **** 0.06
22425 H 91.7032370428989 35.31068890499323 63.03521320074515 H 0.0 **** 0.06
22426 C 38.70349197158765 35.314814554655186 93.75651676211322 C 0.0 **** -0.24
22427 H 38.3453602429002 34.4884736504077 94.37122667823837 H 0.0 **** 0.06
22428 H 38.78874980871814 36.212559776691265 94.36863233196925 H 0.0 **** 0.06
22429 H 37.99911478020442 35.495229507798285 92.94374118444898 H 0.0 **** 0.06
22430 H 39.67934887689353 35.063115702685025 93.34226223930455 H 0.0 **** 0.06
22431 C 64.19578615737063 101.86286976354071 86.69901462827309 C 0.0 **** -0.24
22432 H 63.71739752943665 102.65193548056433 86.1186444976786 H 0.0 **** 0.06
22433 H 63.44156967412795 101.14860055528658 87.0316314271409 H 0.0 **** 0.06
22434 H 64.69067463776767 102.29909178529796 87.56720103977584 H 0.0 **** 0.06
22435 H 64.93199439826856 101.35111260206133 86.07900502567539 H 0.0 **** 0.06
22436 C 101.33126106930769 14.940698200707914 15.428146404996482 C 0.0 **** -0.24
22437 H 101.77280697625622 15.763981368193242 14.867833249276316 H 0.0 **** 0.06
22438 H 101.03761215722437 14.14849176919995 14.73948672985074 H 0.0 **** 0.06
22439 H 100.4533534521922 15.297864519718416 15.967223708279448 H 0.0 **** 0.06
22440 H 102.0604128880351 14.552396001072452 16.139544965200173 H 0.0 **** 0.06
22441 C 1.1218535273120125 91.01188372097356 3.7560091198682812 C 0.0 **** -0.24
22442 H 0.5187989893145186 90.47518337106503 3.0237517791479718 H 0.0 **** 0.06
22443 H 0.5431520352938293 91.1509685530633 4.670074729038106 H 0.0 **** 0.06
22444 H 1.4041765461469708 91.98413495524639 3.352115428240836 H 0.0 **** 0.06
22445 H 2.020319772801244 90.43603356633945 3.978863082338421 H 0.0 **** 0.06
22446 C 67.69683487801743 89.42206916591289 81.76446285856377 C 0.0 **** -0.24
22447 H 68.46256868408022 89.15285419781185 81.03631249745519 H 0.0 **** 0.06
22448 H 66.71885083976662 89.11778090811242 81.3910291161655 H 0.0 **** 0.06
22449 H 67.70709435446946 90.50067515898473 81.91924233393541 H 0.0 **** 0.06
22450 H 67.90012863578522 88.9166790378734 82.70791782200826 H 0.0 **** 0.06
22451 C 103.09013333630276 77.23084598894147 40.26674711941604 C 0.0 **** -0.24
22452 H 103.4948388999271 77.57514678826556 41.21941354523898 H 0.0 **** 0.06
22453 H 103.85472320406731 77.31612400035397 39.49576931963196 H 0.0 **** 0.06
22454 H 102.23026432515967 77.8432065284511 39.99548947684906 H 0.0 **** 0.06
22455 H 102.78042754591512 76.19053275238366 40.35967446890044 H 0.0 **** 0.06
22456 C 30.078706968942413 41.62571243935497 33.216083375755105 C 0.0 **** -0.24
22457 H 30.103028775987525 40.97745934154199 34.0920823705804 H 0.0 **** 0.06
22458 H 29.117635480164893 41.52006678830094 32.7128513704227 H 0.0 **** 0.06
22459 H 30.88069252462539 41.34477983133229 32.53340929260487 H 0.0 **** 0.06
22460 H 30.21381473282071 42.661733286849085 33.52872313680223 H 0.0 **** 0.06
22461 C 68.52891560890575 16.670658515388084 2.7273288641735576 C 0.0 **** -0.24
22462 H 69.2327106774971 16.22098650698669 3.429092744601519 H 0.0 **** 0.06
22463 H 68.93070167989151 17.617550197403176 2.3672220193081444 H 0.0 **** 0.06
22464 H 67.5779076062262 16.84664140896851 3.2302340969131365 H 0.0 **** 0.06
22465 H 68.37492014015208 15.996384301888725 1.8848921948434167 H 0.0 **** 0.06
22466 C 28.37151770316663 60.31760976335863 27.05811662569868 C 0.0 **** -0.24
22467 H 27.542652885695276 60.41424130103985 26.356873213368818 H 0.0 **** 0.06
22468 H 28.877122079052498 59.365556947468576 26.892540113997534 H 0.0 **** 0.06
22469 H 27.991113878035378 60.3542592832176 28.078228156496152 H 0.0 **** 0.06
22470 H 29.076297649658684 61.13540678805006 26.90287426261427 H 0.0 **** 0.06
22471 C 40.36788690640464 48.75154577702012 64.51617784199239 C 0.0 **** -0.24
22472 H 41.20894839458189 48.88648756614263 65.19608896751346 H 0.0 **** 0.06
22473 H 39.801350660596015 49.68088748578328 64.45037832227551 H 0.0 **** 0.06
22474 H 39.722140195602165 47.95758227170332 64.89125916462088 H 0.0 **** 0.06
22475 H 40.73973824236057 48.480680220086796 63.528127597033546 H 0.0 **** 0.06
22476 C 4.405849982766654 94.33306015416468 30.377976581152808 C 0.0 **** -0.24
22477 H 4.9265845907902985 94.14144471502674 29.439725623547446 H 0.0 **** 0.06
22478 H 3.585197700736842 93.6242610045942 30.489755262927986 H 0.0 **** 0.06
22479 H 4.010380409715026 95.34890579791966 30.3732520720352 H 0.0 **** 0.06
22480 H 5.101745589667928 94.21848619651436 31.209089676978465 H 0.0 **** 0.06
22481 C 79.71505831454006 59.456542927325415 106.27934348189149 C 0.0 **** -0.24
22482 H 78.72328278570798 59.05982361725148 106.05963683453884 H 0.0 **** 0.06
22483 H 79.8875196925321 59.426663632171824 107.35511118669935 H 0.0 **** 0.06
22484 H 79.77902887955774 60.48661395976595 105.92875355653717 H 0.0 **** 0.06
22485 H 80.46767422830233 58.85260636737962 105.77271268093453 H 0.0 **** 0.06
22486 C 0.6910785923474494 75.65803934406759 15.90283619778225 C 0.0 **** -0.24
22487 H 0.6128140948798082 76.15255622464161 14.934293158692086 H 0.0 **** 0.06
22488 H 0.24514545025672874 76.2907794900089 16.670859929255954 H 0.0 **** 0.06
22489 H 1.7406574848463503 75.48363276473037 16.13792834390179 H 0.0 **** 0.06
22490 H 0.16359843509633265 74.70413216966244 15.866398319284855 H 0.0 **** 0.06
22491 C 43.937950354536895 34.916145334769055 25.145460994166495 C 0.0 **** -0.24
22492 H 44.50410458279316 34.13599466185386 24.637616402145966 H 0.0 **** 0.06
22493 H 44.18619920493268 35.88591708475843 24.71233375780032 H 0.0 **** 0.06
22494 H 44.191995187632926 34.91689963550718 26.20602102443433 H 0.0 **** 0.06
22495 H 42.871721539431064 34.727192603950016 25.027305318565322 H 0.0 **** 0.06
22496 C 23.32859377995899 34.889745468901424 93.47209408306749 C 0.0 **** -0.24
22497 H 22.618039589976984 35.622802688524445 93.08943137474577 H 0.0 **** 0.06
22498 H 24.302049863774243 35.05134414954895 93.00799707501272 H 0.0 **** 0.06
22499 H 22.97597547049698 33.885716483554006 93.23741567056926 H 0.0 **** 0.06
22500 H 23.41785183315377 35.00143326060959 94.55287469055902 H 0.0 **** 0.06
22501 C 76.94999945966153 70.60647333516036 95.44060943306214 C 0.0 **** -0.24
22502 H 75.93792225259284 70.68449836051244 95.83823325657285 H 0.0 **** 0.06
22503 H 77.43886345696609 69.72810292853399 95.86305745110892 H 0.0 **** 0.06
22504 H 77.51513853592675 71.50003706246193 95.70703313434105 H 0.0 **** 0.06
22505 H 76.90773482470105 70.51258821799706 94.35567619647678 H 0.0 **** 0.06
22506 C 47.971022457454325 56.769476566880854 44.05893009196265 C 0.0 **** -0.24
22507 H 47.872457389920356 57.09273089441621 45.09470196717308 H 0.0 **** 0.06
22508 H 47.16451837140741 57.20138614116334 43.465164806706724 H 0.0 **** 0.06
22509 H 47.915054047760066 55.681688266772596 44.01076323638446 H 0.0 **** 0.06
22510 H 48.93067803985264 57.10082933675077 43.66387654633712 H 0.0 **** 0.06
22511 C 94.14570772004416 80.67504357993704 31.50355806943844 C 0.0 **** -0.24
22512 H 93.5411904950453 81.54275761257534 31.236636319565264 H 0.0 **** 0.06
22513 H 94.56225419164178 80.23148867621512 30.598334878221237 H 0.0 **** 0.06
22514 H 93.52334345082727 79.94189671434879 32.016115603942694 H 0.0 **** 0.06
22515 H 94.95641421549277 80.98728065438624 32.16132764611069 H 0.0 **** 0.06
22516 C 12.582292453355592 24.41005283359263 57.365538318704296 C 0.0 **** -0.24
22517 H 12.651044111870192 25.438297854923064 57.72200752854528 H 0.0 **** 0.06
22518 H 11.887016302962195 23.853597759130423 57.99401877582133 H 0.0 **** 0.06
22519 H 13.566007976744629 23.943845049393673 57.40934331797817 H 0.0 **** 0.06
22520 H 12.224190972950282 24.4064665166878 56.33635014327413 H 0.0 **** 0.06
22521 C 81.35209042979926 63.503092568710045 28.335674904640086 C 0.0 **** -0.24
22522 H 81.5990342855564 63.13372866599579 29.331042126320085 H 0.0 **** 0.06
22523 H 80.95544112604887 62.684445992071616 27.73315760490013 H 0.0 **** 0.06
22524 H 82.25034122904117 63.899932866498816 27.862291171065465 H 0.0 **** 0.06
22525 H 80.60423776939172 64.29138019014347 28.415748854979313 H 0.0 **** 0.06
22526 C 74.59055041453487 38.94927860383328 23.931925796193696 C 0.0 **** -0.24
22527 H 74.41430632152714 38.15395941505025 23.20798847154211 H 0.0 **** 0.06
22528 H 75.27677902751591 39.682254052699705 23.50782068927134 H 0.0 **** 0.06
22529 H 75.02523578413792 38.525638710348176 24.837539817751804 H 0.0 **** 0.06
22530 H 73.64456535573811 39.43428293167776 24.175874580597196 H 0.0 **** 0.06
22531 C 2.1005499329578043 7.194920794671816 46.078579684938376 C 0.0 **** -0.24
22532 H 1.4989581379102646 7.349562553402137 46.974501066370266 H 0.0 **** 0.06
22533 H 2.8005261161554955 6.3761885237052525 46.247868540596045 H 0.0 **** 0.06
22534 H 2.6537473635781765 8.105791064656756 45.85067445229578 H 0.0 **** 0.06
22535 H 1.4480763405549766 6.948060662702218 45.24172002229335 H 0.0 **** 0.06
22536 C 63.163051310249955 108.25238927280547 56.156193827395825 C 0.0 **** -0.24
22537 H 62.65872322962592 107.47721888365896 56.7327290776176 H 0.0 **** 0.06
22538 H 62.98594741209739 109.22276580373187 56.62034948812164 H 0.0 **** 0.06
22539 H 62.771469179041915 108.25985699129171 55.139106555349464 H 0.0 **** 0.06
22540 H 64.23307386064312 108.04964760858826 56.13237473605902 H 0.0 **** 0.06
22541 C 14.61356161390798 89.14699711297419 14.252873984253242 C 0.0 **** -0.24
22542 H 15.533866561313165 88.80949498655656 14.730463791833127 H 0.0 **** 0.06
22543 H 14.85278315008567 89.63187398126684 13.306854268765033 H 0.0 **** 0.06
22544 H 14.104382781447871 89.85486206073676 14.906899973652514 H 0.0 **** 0.06
22545 H 13.96424074643651 88.29097450447148 14.069103553636857 H 0.0 **** 0.06
22546 C 52.75670426399466 69.36568315911822 24.623571811057946 C 0.0 **** -0.24
22547 H 53.54157071095366 68.8120313821141 24.108367747057386 H 0.0 **** 0.06
22548 H 52.581446634056185 68.92112579990443 25.603124958861272 H 0.0 **** 0.06
22549 H 51.838856097734784 69.32638602973996 24.036137227017203 H 0.0 **** 0.06
22550 H 53.06552633045645 70.40395862343324 24.744905463084482 H 0.0 **** 0.06
22551 C 25.93626151550428 2.0387871712554784 89.72636053684955 C 0.0 **** -0.24
22552 H 26.451292102517936 1.7554450449720207 88.80894429973242 H 0.0 **** 0.06
22553 H 26.257693788997994 3.035543904533341 90.02994778363542 H 0.0 **** 0.06
22554 H 26.17472604667625 1.3235508266449614 90.51311873863835 H 0.0 **** 0.06
22555 H 24.860078663780044 2.042072118519769 89.55229859182535 H 0.0 **** 0.06
22556 C 58.33328441641165 108.92712884881752 67.39259671510852 C 0.0 **** -0.24
22557 H 58.038701009344024 108.64390071743628 68.40294580842192 H 0.0 **** 0.06
22558 H 58.075437559846655 108.12484630700365 66.70050522112703 H 0.0 **** 0.06
22559 H 59.40910688259659 109.10110185696561 67.36390358155369 H 0.0 **** 0.06
22560 H 57.810046064626555 109.83867701806591 67.10443806535633 H 0.0 **** 0.06
22561 C 89.86343527137171 89.09567655383817 83.18983485851732 C 0.0 **** -0.24
22562 H 90.51009455580598 89.92481556601554 83.47598010617105 H 0.0 **** 0.06
22563 H 88.8912409253794 89.21074254349344 83.6703781921417 H 0.0 **** 0.06
22564 H 90.3162249048849 88.15599668234816 83.50561505416988 H 0.0 **** 0.06
22565 H 89.73538823661903 89.09230255960165 82.10758284752524 H 0.0 **** 0.06
22566 C 99.93055861801577 38.318597273634055 47.001931924845394 C 0.0 **** -0.24
22567 H 100.21940913513866 37.493409813035015 47.65351686792809 H 0.0 **** 0.06
22568 H 98.98266856173544 38.73682413297445 47.34384815483102 H 0.0 **** 0.06
22569 H 99.82020838158508 37.953742845155915 45.98070328262392 H 0.0 **** 0.06
22570 H 100.6994433629861 39.0902333363897 47.031306531981755 H 0.0 **** 0.06
22571 C 71.35926462278962 75.98658341366246 89.55190964578429 C 0.0 **** -0.24
22572 H 70.68525474683577 76.80355659051605 89.29435309445438 H 0.0 **** 0.06
22573 H 71.12854449343581 75.62709757602994 90.55462147248102 H 0.0 **** 0.06
22574 H 72.38972870583336 76.34213239271628 89.51983754408735 H 0.0 **** 0.06
22575 H 71.23378258996746 75.1736514791445 88.83660705211685 H 0.0 **** 0.06
22576 C 31.521187402508218 42.266424985326864 79.79832909332723 C 0.0 **** -0.24
22577 H 30.520238052047176 42.280986505339854 80.22878720831892 H 0.0 **** 0.06
22578 H 31.696364148109524 41.30439952710941 79.31559205933513 H 0.0 **** 0.06
22579 H 32.258407648548285 42.416761930316454 80.58759838933699 H 0.0 **** 0.06
22580 H 31.61108456941568 43.06428133881826 79.0605265134905 H 0.0 **** 0.06
22581 C 103.58065976692745 46.19906550372815 57.67476044259829 C 0.0 **** -0.24
22582 H 103.74859710419037 47.032351305137375 58.35689215702528 H 0.0 **** 0.06
22583 H 103.71917671667063 45.25900608323369 58.20927071242256 H 0.0 **** 0.06
22584 H 104.2922669922761 46.256424575597734 56.85010958473775 H 0.0 **** 0.06
22585 H 102.56493730122293 46.24796335915231 57.28225727359227 H 0.0 **** 0.06
22586 C 69.3533832293304 8.08295545237603 22.945861374621092 C 0.0 **** -0.24
22587 H 69.04059691646552 7.098270164346831 22.598646075103023 H 0.0 **** 0.06
22588 H 70.2140606575395 8.416270554057038 22.36636223730323 H 0.0 **** 0.06
22589 H 69.62468910683339 8.026579486213468 24.00021413891092 H 0.0 **** 0.06
22590 H 68.53342497229875 8.789776551572725 22.81897461373087 H 0.0 **** 0.06
22591 C 90.14325752162753 18.118781332457786 8.670505873802654 C 0.0 **** -0.24
22592 H 90.29689214618263 17.04086257081204 8.654248766607168 H 0.0 **** 0.06
22593 H 90.7709997295168 18.564648948935414 9.443123331696597 H 0.0 **** 0.06
22594 H 89.09563561143862 18.333777012026474 8.884120285736003 H 0.0 **** 0.06
22595 H 90.40937982419454 18.537991651764102 7.6999464920732805 H 0.0 **** 0.06
22596 C 66.23723780893985 100.59393467320574 6.281189568760908 C 0.0 **** -0.24
22597 H 66.67379733955852 101.00734446900553 5.371968482402352 H 0.0 **** 0.06
22598 H 65.86719690095441 99.58792555237164 6.0821210784521895 H 0.0 **** 0.06
22599 H 65.41297994979493 101.22647412066928 6.608641281935803 H 0.0 **** 0.06
22600 H 66.99667516555013 100.55376187101541 7.062277225965516 H 0.0 **** 0.06
22601 C 8.68216757861478 71.90932635754979 56.37553354509237 C 0.0 **** -0.24
22602 H 9.035435097944855 71.70731666162553 55.3649124740144 H 0.0 **** 0.06
22603 H 7.900572501209297 72.66947605408694 56.340870492632575 H 0.0 **** 0.06
22604 H 9.5106724697946 72.26705028295532 56.98627167752545 H 0.0 **** 0.06
22605 H 8.279245311386319 70.99400659242022 56.80860653889712 H 0.0 **** 0.06
22606 C 94.77921170903184 27.446528534764923 23.530184960582147 C 0.0 **** -0.24
22607 H 95.68087767201729 28.0157134982814 23.756995117665724 H 0.0 **** 0.06
22608 H 93.90104449055924 28.054852195897297 23.749311818780086 H 0.0 **** 0.06
22609 H 94.75671929897238 26.543957361602452 24.140766015506927 H 0.0 **** 0.06
22610 H 94.77797612896931 27.172116398083347 22.47530140542503 H 0.0 **** 0.06
22611 C 22.31809724323942 99.41226685960561 46.13560681920688 C 0.0 **** -0.24
22612 H 23.2751470597189 99.31053637199989 46.647316133027296 H 0.0 **** 0.06
22613 H 22.342683153292374 100.29073781425151 45.49058186496312 H 0.0 **** 0.06
22614 H 21.522972407300305 99.52394731252718 46.872399740015325 H 0.0 **** 0.06
22615 H 22.132084990665557 98.52298437209734 45.53203408707965 H 0.0 **** 0.06
22616 C 42.80830563025057 101.35486284530322 45.204173829876424 C 0.0 **** -0.24
22617 H 43.55112754846482 101.23422575548022 45.992618595083826 H 0.0 **** 0.06
22618 H 42.58362639293108 100.38319777024091 44.76382611927528 H 0.0 **** 0.06
22619 H 43.19886810973907 102.02127400171852 44.436048897313356 H 0.0 **** 0.06
22620 H 41.89714319153029 101.78197238957824 45.62606651309781 H 0.0 **** 0.06
22621 C 55.2308238208583 79.46527580366552 90.48985092880046 C 0.0 **** -0.24
22622 H 56.29153059731114 79.64570944023342 90.31715272480366 H 0.0 **** 0.06
22623 H 54.64805086301603 80.2723111682767 90.04445950237965 H 0.0 **** 0.06
22624 H 55.03877313532029 79.42623767847482 91.56186184205487 H 0.0 **** 0.06
22625 H 54.94567649747516 78.51667062080037 90.03527523725344 H 0.0 **** 0.06
22626 C 85.48563693376215 81.59129667770851 103.92740560312747 C 0.0 **** -0.24
22627 H 84.83322619430633 80.91774326113521 103.37102630488232 H 0.0 **** 0.06
22628 H 85.09406066800541 81.72477082385369 104.93576840283248 H 0.0 **** 0.06
22629 H 85.52628708465807 82.55619164627214 103.42165650944412 H 0.0 **** 0.06
22630 H 86.48814577236045 81.16548182656757 103.97909360527575 H 0.0 **** 0.06
22631 C 40.70104048319618 1.05148277593743 99.13136348538856 C 0.0 **** -0.24
22632 H 41.557086521295254 1.1522146616929518 98.46369802821138 H 0.0 **** 0.06
22633 H 40.01009924349198 1.877493926308773 98.96283560715955 H 0.0 **** 0.06
22634 H 41.043032789166375 1.0687075439467861 100.16606412875495 H 0.0 **** 0.06
22635 H 40.19409928287442 0.10751598795565087 98.93145054874708 H 0.0 **** 0.06
22636 C 61.34248734675151 62.81525822402827 31.22667509362344 C 0.0 **** -0.24
22637 H 61.017732807754285 63.83952307539123 31.044785441748104 H 0.0 **** 0.06
22638 H 60.54036829205151 62.12693533362223 30.958152203180816 H 0.0 **** 0.06
22639 H 61.58706917085465 62.69319945147784 32.281600790127584 H 0.0 **** 0.06
22640 H 62.22351790223654 62.60073674518348 30.622116957431217 H 0.0 **** 0.06
22641 C 92.0057285651514 68.85992453093269 109.3208567459618 C 0.0 **** -0.24
22642 H 92.56036930273893 69.64923077557025 109.82901932352965 H 0.0 **** 0.06
22643 H 92.66307808158183 68.00833435819258 109.14893352676533 H 0.0 **** 0.06
22644 H 91.63574236110895 69.23405822672116 108.36553998233758 H 0.0 **** 0.06
22645 H 91.16410711968763 68.55085926490113 109.94098325094335 H 0.0 **** 0.06
22646 C 77.9861368118626 57.5636485930355 87.82683323580022 C 0.0 **** -0.24
22647 H 77.34430498475768 57.91549098251564 87.01905683789323 H 0.0 **** 0.06
22648 H 77.67387871323454 58.02381786817818 88.76486736855952 H 0.0 **** 0.06
22649 H 79.01897713138146 57.83661713970048 87.61404499996138 H 0.0 **** 0.06
22650 H 77.90667953998437 56.4791121380012 87.90822202629641 H 0.0 **** 0.06
22651 C 31.99362397700861 11.963433364253724 51.25141243734473 C 0.0 **** -0.24
22652 H 31.956777856144754 12.753810167105804 52.001134877934675 H 0.0 **** 0.06
22653 H 32.40880145791857 11.058912531490593 51.69802488615747 H 0.0 **** 0.06
22654 H 32.62451629199879 12.281470350504655 50.42094554304728 H 0.0 **** 0.06
22655 H 30.98768211439426 11.760672855235288 50.886518051194095 H 0.0 **** 0.06
22656 C 42.136322935508474 86.19070522759603 105.03693873722094 C 0.0 **** -0.24
22657 H 42.084440254890524 86.76547928804297 105.96142119325236 H 0.0 **** 0.06
22658 H 41.548101657215625 85.27920990337327 105.1429805381608 H 0.0 **** 0.06
22659 H 43.174756822722316 85.93055921080406 104.82875123132578 H 0.0 **** 0.06
22660 H 41.73975375214127 86.78668662714028 104.21605638958292 H 0.0 **** 0.06
22661 C 5.191409032489332 51.04283266027752 101.42105683515278 C 0.0 **** -0.24
22662 H 4.700580204190345 50.079614231326 101.55530330442882 H 0.0 **** 0.06
22663 H 5.580262723898386 51.389463854925836 102.3794025808834 H 0.0 **** 0.06
22664 H 4.472326205771765 51.76690750127106 101.03762054262191 H 0.0 **** 0.06
22665 H 6.013463356041854 50.936739345027554 100.7136512028014 H 0.0 **** 0.06
22666 C 15.147307009022143 84.17761034546157 93.11880705167846 C 0.0 **** -0.24
22667 H 16.221939148053963 84.33489558096835 93.21339037162466 H 0.0 **** 0.06
22668 H 14.618357423975851 85.05641736489707 93.48918183496079 H 0.0 **** 0.06
22669 H 14.854899650902212 83.30366907204376 93.70029171704124 H 0.0 **** 0.06
22670 H 14.896123217449855 84.01679102772749 92.06994492486854 H 0.0 **** 0.06
22671 C 1.1723251219895587 89.4329394085861 22.259323195428408 C 0.0 **** -0.24
22672 H 1.2738219929665746 88.40662371891688 21.9070174533054 H 0.0 **** 0.06
22673 H 1.588408393004272 89.51544489518176 23.264126903597855 H 0.0 **** 0.06
22674 H 0.11679398105840733 89.70748329149018 22.279137834297387 H 0.0 **** 0.06
22675 H 1.7093539106838307 90.10255371310836 21.588024757287883 H 0.0 **** 0.06
22676 C 22.436813346172485 17.9789044706707 71.81184427569099 C 0.0 **** -0.24
22677 H 21.74987212212371 18.72774168125308 72.20747478881664 H 0.0 **** 0.06
22678 H 23.083244078330715 17.619685241511604 72.61308940485544 H 0.0 **** 0.06
22679 H 23.046490494704297 18.425501186885 71.0264335505861 H 0.0 **** 0.06
22680 H 21.86839672450213 17.144778622453103 71.40141591671578 H 0.0 **** 0.06
22681 C 58.629873941122355 35.06078316871225 34.12550679077954 C 0.0 **** -0.24
22682 H 59.4786047890002 34.81452653323197 33.488481347380855 H 0.0 **** 0.06
22683 H 58.12836172784603 35.94683233562844 33.73643323629685 H 0.0 **** 0.06
22684 H 58.98046868443339 35.256181782786825 35.13936112709861 H 0.0 **** 0.06
22685 H 57.93135500946289 34.22358420539692 34.13896436571581 H 0.0 **** 0.06
22686 C 16.026075843861605 94.23927791911348 13.230371487511803 C 0.0 **** -0.24
22687 H 16.33376589437556 93.21153114410725 13.039135420965081 H 0.0 **** 0.06
22688 H 15.000978202661528 94.24840696703306 13.6003273411457 H 0.0 **** 0.06
22689 H 16.083683615439554 94.81309713440726 12.30602216936478 H 0.0 **** 0.06
22690 H 16.68640742844599 94.68332433340406 13.975611628829228 H 0.0 **** 0.06
22691 C 79.21367447646475 10.851120267547605 64.15229496383506 C 0.0 **** -0.24
22692 H 80.01361058797508 10.266580578455155 64.6076854286402 H 0.0 **** 0.06
22693 H 78.32605866438216 10.227806086654395 64.0432423439247 H 0.0 **** 0.06
22694 H 79.5337962498934 11.2025776142824 63.17203551461074 H 0.0 **** 0.06
22695 H 78.98245413631064 11.705441525341847 64.78800572673947 H 0.0 **** 0.06
22696 C 13.285925904784847 3.4995116419456593 46.40868249857641 C 0.0 **** -0.24
22697 H 13.824843754311473 3.2851466755125784 45.48510080774227 H 0.0 **** 0.06
22698 H 13.77171388434283 2.9875660250363723 47.24002276717516 H 0.0 **** 0.06
22699 H 12.257233590140402 3.149926126463299 46.31793019939849 H 0.0 **** 0.06
22700 H 13.289965876928477 4.574178299431566 46.59097928938198 H 0.0 **** 0.06
22701 C 48.51475132020846 86.97670073952787 73.2370724601024 C 0.0 **** -0.24
22702 H 48.4493771036031 88.0107688029081 73.5757379639196 H 0.0 **** 0.06
22703 H 49.52446070920834 86.60226151720832 73.40723447156368 H 0.0 **** 0.06
22704 H 48.28314568310202 86.9281143152595 72.17292817169549 H 0.0 **** 0.06
22705 H 47.80231472412595 86.36769389880601 73.79326722207819 H 0.0 **** 0.06
22706 C 80.52861614528257 61.46525193584159 13.017855328321758 C 0.0 **** -0.24
22707 H 80.62646875223615 62.25594520159245 13.761137809885042 H 0.0 **** 0.06
22708 H 80.2388349973966 60.53759497736098 13.511251021427995 H 0.0 **** 0.06
22709 H 81.48228552256359 61.325219723061025 12.50847277614784 H 0.0 **** 0.06
22710 H 79.76556430607508 61.74394217244276 12.289918799130817 H 0.0 **** 0.06
22711 C 45.29950292836964 58.69792450021214 99.76494849767911 C 0.0 **** -0.24
22712 H 45.70516859422846 57.69388157777365 99.63994429692126 H 0.0 **** 0.06
22713 H 45.97948276942122 59.42332693467671 99.3176190709462 H 0.0 **** 0.06
22714 H 45.184962813365125 58.91282284372656 100.82784415303752 H 0.0 **** 0.06
22715 H 44.328016757964974 58.76035331302856 99.27474739476571 H 0.0 **** 0.06
22716 C 79.86065484547123 27.32288982684156 66.66363899722874 C 0.0 **** -0.24
22717 H 79.32767613816867 28.257577727084026 66.83540641528603 H 0.0 **** 0.06
22718 H 80.21508540672409 26.92732541014294 67.61542974505038 H 0.0 **** 0.06
22719 H 80.71035202462176 27.504594022173137 66.0057794859821 H 0.0 **** 0.06
22720 H 79.18821139834319 26.601710245148666 66.19749228475922 H 0.0 **** 0.06
22721 C 21.806391214547773 14.08190132349958 47.875797815372266 C 0.0 **** -0.24
22722 H 22.889347999865294 13.989438491596388 47.79243056332567 H 0.0 **** 0.06
22723 H 21.500457164335074 15.077054440273827 47.55295652793791 H 0.0 **** 0.06
22724 H 21.507064130086462 13.927774642295986 48.91261175118393 H 0.0 **** 0.06
22725 H 21.329477799579763 13.332351219076969 47.24454819648605 H 0.0 **** 0.06
22726 C 21.767062115169495 57.00866997448108 49.38988757843285 C 0.0 **** -0.24
22727 H 21.71988961623714 57.20216599999894 48.31845914726321 H 0.0 **** 0.06
22728 H 21.466038130161337 55.97972172612973 49.58692292927449 H 0.0 **** 0.06
22729 H 21.097241420793736 57.69115158393194 49.912740272100905 H 0.0 **** 0.06
22730 H 22.78854027068219 57.161581534244526 49.7412910560916 H 0.0 **** 0.06
22731 C 26.45643175509964 4.264054589704942 20.912565594183008 C 0.0 **** -0.24
22732 H 26.021845689592485 4.895420198710378 20.13855447838972 H 0.0 **** 0.06
22733 H 25.69492245256458 4.022899788189237 21.654516285945988 H 0.0 **** 0.06
22734 H 27.27806319691706 4.794917109163791 21.39518315221852 H 0.0 **** 0.06
22735 H 26.831718191277062 3.344243883563264 20.463939667923057 H 0.0 **** 0.06
22736 C 98.75160302934603 17.567002066046257 81.40675820883018 C 0.0 **** -0.24
22737 H 99.81813471824296 17.76134142489522 81.29138378957487 H 0.0 **** 0.06
22738 H 98.59803280783206 16.847344922350317 82.21073559308644 H 0.0 **** 0.06
22739 H 98.35306438670727 17.16360606283787 80.47684510055831 H 0.0 **** 0.06
22740 H 98.23707682334316 18.49776851403786 81.6489493442889 H 0.0 **** 0.06
22741 C 24.76432161265214 101.61619936269713 42.196345972730825 C 0.0 **** -0.24
22742 H 24.355177773024764 102.38525945046942 42.850562833760904 H 0.0 **** 0.06
22743 H 25.581617752428087 102.03512566411675 41.609095047845585 H 0.0 **** 0.06
22744 H 23.98314502880305 101.256002071686 41.52712933649414 H 0.0 **** 0.06
22745 H 25.137592381941445 100.78701784122035 42.79861906282531 H 0.0 **** 0.06
22746 C 91.24537777410366 75.84682250173054 2.2211823673416404 C 0.0 **** -0.24
22747 H 90.73006653385312 76.75342934245361 2.539737335576305 H 0.0 **** 0.06
22748 H 90.57172655501735 75.23894175511018 1.616593305729495 H 0.0 **** 0.06
22749 H 91.55909386049008 75.27969638569024 3.098124268071274 H 0.0 **** 0.06
22750 H 92.12144700994547 76.11569291033952 1.6305934370634247 H 0.0 **** 0.06
22751 C 49.039243967415835 12.398759524588641 16.685567063415363 C 0.0 **** -0.24
22752 H 48.40610795434194 13.09904912347693 16.140638503430225 H 0.0 **** 0.06
22753 H 50.010680860862934 12.85549285233418 16.872234803030977 H 0.0 **** 0.06
22754 H 49.1713886230661 11.49361530040494 16.09273690951973 H 0.0 **** 0.06
22755 H 48.56656938857095 12.14541359550013 17.634688479582195 H 0.0 **** 0.06
22756 C 24.203776674856528 34.8761200233337 38.32131036754039 C 0.0 **** -0.24
22757 H 24.623132256955813 35.85393131451491 38.5588937290313 H 0.0 **** 0.06
22758 H 25.013131471197255 34.174616393590355 38.11745413138942 H 0.0 **** 0.06
22759 H 23.56459096562753 34.959960136945355 37.44229140546088 H 0.0 **** 0.06
22760 H 23.615689634707707 34.517932946997234 39.166303573211366 H 0.0 **** 0.06
22761 C 49.46829347244737 7.235976497297145 21.751998831265865 C 0.0 **** -0.24
22762 H 50.40911418144566 7.69991257670975 21.45671499352858 H 0.0 **** 0.06
22763 H 48.71808570924659 7.415717687462546 20.98152994055644 H 0.0 **** 0.06
22764 H 49.13131392940027 7.666056641306113 22.69493557272824 H 0.0 **** 0.06
22765 H 49.6155088389542 6.1627460483032905 21.874770675165763 H 0.0 **** 0.06
22766 C 106.62812051308825 42.02101512630651 100.49465001658167 C 0.0 **** -0.24
22767 H 107.57633717725415 42.32659373429237 100.93597041444752 H 0.0 **** 0.06
22768 H 106.01622340816877 42.902369091857395 100.30178219004449 H 0.0 **** 0.06
22769 H 106.10438868513835 41.35771172440195 101.1828755782588 H 0.0 **** 0.06
22770 H 106.81626039778541 41.4964440470348 99.55720802229457 H 0.0 **** 0.06
22771 C 107.18972737650154 13.368879826858063 6.529852037138028 C 0.0 **** -0.24
22772 H 107.85449861015391 14.167587333572584 6.203090172940733 H 0.0 **** 0.06
22773 H 106.96105355671497 13.496075097751316 7.588695550466269 H 0.0 **** 0.06
22774 H 107.67652903795468 12.405849708503695 6.377113769125003 H 0.0 **** 0.06
22775 H 106.26648987277373 13.40522044768585 5.951024977168544 H 0.0 **** 0.06
22776 C 47.62207834896353 94.07044930823608 44.072645565502114 C 0.0 **** -0.24
22777 H 46.72774646384133 93.7933133587386 44.63139957632839 H 0.0 **** 0.06
22778 H 48.35359572117096 94.50698678719357 44.75247952669042 H 0.0 **** 0.06
22779 H 47.35944463218746 94.79755222638195 43.303994305655294 H 0.0 **** 0.06
22780 H 48.04598310038074 93.18267690289903 43.60280963128645 H 0.0 **** 0.06
22781 C 45.50326753225954 13.81157557670528 65.82116609173295 C 0.0 **** -0.24
22782 H 45.687334946911136 13.161945684291616 66.67654847823242 H 0.0 **** 0.06
22783 H 44.57233414454083 14.358602865153038 65.97479585707899 H 0.0 **** 0.06
22784 H 45.42682003841966 13.209299156275243 64.91704073846476 H 0.0 **** 0.06
22785 H 46.32687263850201 14.51781078386118 65.7189393985553 H 0.0 **** 0.06
22786 C 59.73789981066041 26.730267777852532 28.334888836624884 C 0.0 **** -0.24
22787 H 60.339582856816335 27.592467221480973 28.623311303242502 H 0.0 **** 0.06
22788 H 58.926398711531505 27.056454989092572 27.684025751882643 H 0.0 **** 0.06
22789 H 59.32350215814823 26.261896125962636 29.22651563366921 H 0.0 **** 0.06
22790 H 60.3634395072783 26.012489673065488 27.803642589994354 H 0.0 **** 0.06
22791 C 33.452923245289895 90.59850752934221 39.455538582969616 C 0.0 **** -0.24
22792 H 33.634885303258685 91.31636626093888 40.25585574241362 H 0.0 **** 0.06
22793 H 33.93300246001412 90.94545188260606 38.540185395861705 H 0.0 **** 0.06
22794 H 32.378780709638875 90.50432922738273 39.290844300172644 H 0.0 **** 0.06
22795 H 33.86296389599525 89.62922815091662 39.736984763431614 H 0.0 **** 0.06
22796 C 59.07869601916586 75.75465296663944 4.8440229895318225 C 0.0 **** -0.24
22797 H 58.14572165940976 76.29896674845847 4.986005923767749 H 0.0 **** 0.06
22798 H 59.75541766247642 75.97225984253032 5.670417528980295 H 0.0 **** 0.06
22799 H 59.539504998200684 76.06290878674145 3.9058432252728608 H 0.0 **** 0.06
22800 H 58.874139756576554 74.68447648882761 4.813825280106471 H 0.0 **** 0.06
22801 C 32.28616442128495 31.148933605091393 72.62729597734122 C 0.0 **** -0.24
22802 H 32.68452425152236 31.899528192918282 71.94446431026019 H 0.0 **** 0.06
22803 H 32.702072243256396 30.173441314905958 72.37594896467677 H 0.0 **** 0.06
22804 H 31.20022613914523 31.11640094102753 72.53585985133572 H 0.0 **** 0.06
22805 H 32.557419980655425 31.408193170857054 73.65036475841507 H 0.0 **** 0.06
22806 C 17.33827002291065 21.60521711377254 42.52640804063589 C 0.0 **** -0.24
22807 H 16.737790071985046 20.94908510133289 43.1576524830498 H 0.0 **** 0.06
22808 H 16.692225920291236 22.10639358624558 41.805815222538165 H 0.0 **** 0.06
22809 H 18.084647870446616 21.01406213920301 41.99566537748419 H 0.0 **** 0.06
22810 H 17.83720941517703 22.349482156604026 43.146870674022814 H 0.0 **** 0.06
22811 C 92.02513214734101 62.31184258504065 65.99507870094189 C 0.0 **** -0.24
22812 H 92.27055836711801 62.13316256261707 64.94843250470484 H 0.0 **** 0.06
22813 H 92.69152035448455 61.727326208704255 66.6287246460609 H 0.0 **** 0.06
22814 H 90.99229887577741 62.01441115958353 66.18046725717392 H 0.0 **** 0.06
22815 H 92.14450798566432 63.371096611240304 66.22058952573278 H 0.0 **** 0.06
22816 C 61.91888520106778 6.563152231526544 36.75246702679 C 0.0 **** -0.24
22817 H 62.22350857537731 6.353705548399461 35.7271360834543 H 0.0 **** 0.06
22818 H 60.838155250292516 6.449713616964857 36.840650603984585 H 0.0 **** 0.06
22819 H 62.19849974388177 7.584048517357246 37.01293843040587 H 0.0 **** 0.06
22820 H 62.41476977742127 5.867061891499247 37.42817224002644 H 0.0 **** 0.06
22821 C 44.41789242814855 66.5444151152895 67.21958955669373 C 0.0 **** -0.24
22822 H 43.622973714899246 67.23807051775617 67.4913067348532 H 0.0 **** 0.06
22823 H 44.01255297805645 65.75833105818145 66.58304135351688 H 0.0 **** 0.06
22824 H 44.83803465021114 66.10219640635293 68.12243170533611 H 0.0 **** 0.06
22825 H 45.19950296960981 67.08164298068962 66.6819064979374 H 0.0 **** 0.06
22826 C 64.07776925426566 71.50821764843877 83.8812635228604 C 0.0 **** -0.24
22827 H 64.71561996774562 71.64634200348604 84.75507875600755 H 0.0 **** 0.06
22828 H 64.20569080263215 72.35009275282003 83.20115527578788 H 0.0 **** 0.06
22829 H 63.03627117781048 71.45082245107666 84.1984660410117 H 0.0 **** 0.06
22830 H 64.3545941772087 70.58409878450375 83.3735941784609 H 0.0 **** 0.06
22831 C 43.498730851697275 37.59106989884893 81.06200625863596 C 0.0 **** -0.24
22832 H 43.033645917681696 38.13968856479116 81.88111701617987 H 0.0 **** 0.06
22833 H 44.57650913494528 37.545963169753065 81.21988989153704 H 0.0 **** 0.06
22834 H 43.28905042823513 38.099160950297346 80.1205194093038 H 0.0 **** 0.06
22835 H 43.09350737661089 36.579734363702386 81.0267041153491 H 0.0 **** 0.06
22836 C 51.09708372438837 15.527444263646515 2.0079692091805725 C 0.0 **** -0.24
22837 H 51.760828387556785 15.39835377217139 1.1530659810983224 H 0.0 **** 0.06
22838 H 50.74321595716782 14.551560064192188 2.342958133642057 H 0.0 **** 0.06
22839 H 50.24569657439355 16.142174870152502 1.7155618337977359 H 0.0 **** 0.06
22840 H 51.63865326501036 16.015742671794484 2.818008066497711 H 0.0 **** 0.06
22841 C 68.004588613745 0.2283368395602423 82.38027485571492 C 0.0 **** -0.24
22842 H 67.03696269319437 0.7068621888330142 82.53358325525232 H 0.0 **** 0.06
22843 H 68.45825495670601 0.6122890476545848 81.46629923331348 H 0.0 **** 0.06
22844 H 67.86708278628873 -0.8492931569304858 82.29231126691224 H 0.0 **** 0.06
22845 H 68.65497565062662 0.44419729518142503 83.22774981990888 H 0.0 **** 0.06
22846 C 15.867319448561716 108.79905981974758 69.92566797337022 C 0.0 **** -0.24
22847 H 15.266248977365478 108.88087232048969 69.01958800494073 H 0.0 **** 0.06
22848 H 15.272308276854659 109.10860478128137 70.7852332796196 H 0.0 **** 0.06
22849 H 16.743987834718098 109.44052307752744 69.83926043573345 H 0.0 **** 0.06
22850 H 16.18572786484779 107.76455943235217 70.05711731523205 H 0.0 **** 0.06
22851 C 3.1387128932437065 54.567443538405755 47.0551407340821 C 0.0 **** -0.24
22852 H 2.9973085057340825 55.52422721269576 47.558435572638246 H 0.0 **** 0.06
22853 H 2.3314253686837816 53.88914548137151 47.332165071844486 H 0.0 **** 0.06
22854 H 4.094251054466511 54.13710586669451 47.35412593599722 H 0.0 **** 0.06
22855 H 3.130778486905186 54.72117758246917 45.97636007026267 H 0.0 **** 0.06
22856 C 102.0663663576609 86.13736532040684 93.88530675081186 C 0.0 **** -0.24
22857 H 101.21534367011128 85.61363476578623 93.44891747769859 H 0.0 **** 0.06
22858 H 102.24097127275321 85.76697546294486 94.89519254277857 H 0.0 **** 0.06
22859 H 101.8541357852618 87.20597484807433 93.92124743311926 H 0.0 **** 0.06
22860 H 102.9520711506177 85.96316764444668 93.2738077035691 H 0.0 **** 0.06
22861 C 40.17578730506912 98.48781673535987 89.22488974719488 C 0.0 **** -0.24
22862 H 39.57319145682129 98.08923305471814 88.40870829768036 H 0.0 **** 0.06
22863 H 40.501522238734225 97.66975670369061 89.868543750436 H 0.0 **** 0.06
22864 H 39.580897942239176 99.19342413332828 89.8054590760359 H 0.0 **** 0.06
22865 H 41.047804091827004 98.99816378493463 88.8161741166071 H 0.0 **** 0.06
22866 C 82.71096220974215 45.16071343110356 21.74980559415559 C 0.0 **** -0.24
22867 H 83.50324974557935 44.44979777650559 21.98706140706713 H 0.0 **** 0.06
22868 H 82.41756412905335 45.04278708475724 20.706460575009004 H 0.0 **** 0.06
22869 H 83.07369675163511 46.175767588896484 21.914236777726302 H 0.0 **** 0.06
22870 H 81.8511461618263 44.97367729273964 22.39289633162116 H 0.0 **** 0.06
22871 C 28.082886325843965 49.62734874600335 62.90730439439142 C 0.0 **** -0.24
22872 H 29.162017056440718 49.47367544724591 62.90291695720836 H 0.0 **** 0.06
22873 H 27.581982776817284 48.68181278756731 63.11581881830887 H 0.0 **** 0.06
22874 H 27.765930386156704 50.000297122420704 61.93281100909786 H 0.0 **** 0.06
22875 H 27.822391208212352 50.35401992476824 63.67617766357006 H 0.0 **** 0.06
22876 C 104.93624935969744 30.45863838192571 90.58631571666973 C 0.0 **** -0.24
22877 H 104.1014023593825 30.101686418899362 89.98312615160651 H 0.0 **** 0.06
22878 H 105.67642245817906 29.6642952640845 90.68597359026096 H 0.0 **** 0.06
22879 H 104.57518672604884 30.74497310075992 91.57358569739755 H 0.0 **** 0.06
22880 H 105.3919089105224 31.321457006064463 90.10047802795904 H 0.0 **** 0.06
22881 C 29.421992809734036 12.602279458263922 15.00956861254964 C 0.0 **** -0.24
22882 H 28.544188319950933 12.567718372299737 15.654482288873961 H 0.0 **** 0.06
22883 H 30.289209036870034 12.230782344533651 15.554944394742158 H 0.0 **** 0.06
22884 H 29.60177111498652 13.630943265999434 14.696502463556321 H 0.0 **** 0.06
22885 H 29.251729419446008 11.97962990388669 14.130143873774276 H 0.0 **** 0.06
22886 C 32.38512108484295 31.03578056779463 106.50518150857678 C 0.0 **** -0.24
22887 H 32.15671306400037 30.744198456539763 107.5299573254021 H 0.0 **** 0.06
22888 H 33.093925966301214 31.863345224941604 106.51240666031732 H 0.0 **** 0.06
22889 H 31.468215935623988 31.34522652862578 106.00285487903874 H 0.0 **** 0.06
22890 H 32.82129769444839 30.188148400192702 105.97532246571251 H 0.0 **** 0.06
22891 C 81.82987345374498 35.040776004681945 38.7667810926257 C 0.0 **** -0.24
22892 H 81.35142116547644 35.6551481475585 39.52998694848473 H 0.0 **** 0.06
22893 H 81.07042080038698 34.640006288241835 38.09515010512286 H 0.0 **** 0.06
22894 H 82.36401077269642 34.219519023426734 39.2443731220325 H 0.0 **** 0.06
22895 H 82.53297094356644 35.64928508017326 38.198520183533475 H 0.0 **** 0.06
22896 C 23.81193362400566 11.541381995429745 21.502940926685625 C 0.0 **** -0.24
22897 H 24.46112257763869 11.204724417938579 20.6947378364263 H 0.0 **** 0.06
22898 H 24.171038364751496 11.136163546930106 22.44979241237411 H 0.0 **** 0.06
22899 H 22.795172955670466 11.193100932364928 21.32192740193426 H 0.0 **** 0.06
22900 H 23.821085801768845 12.629838308528448 21.54658594061965 H 0.0 **** 0.06
22901 C 21.389925455358224 1.7617474055703326 45.10023053075406 C 0.0 **** -0.24
22902 H 21.970120396512073 2.1462418302720323 45.93847732154836 H 0.0 **** 0.06
22903 H 21.29767386920281 0.6788733266139104 45.18807854745364 H 0.0 **** 0.06
22904 H 21.893387368233107 2.009034896532441 44.16587522373533 H 0.0 **** 0.06
22905 H 20.39758154677159 2.213178648299248 45.10855449912248 H 0.0 **** 0.06
22906 C 23.535600991516958 51.17726583566457 94.8210699917602 C 0.0 **** -0.24
22907 H 23.26931934906989 50.1562696995949 94.54764570566465 H 0.0 **** 0.06
22908 H 24.389704868582328 51.501798920004035 94.22687415127542 H 0.0 **** 0.06
22909 H 23.79250718756728 51.21451896126902 95.87911026119068 H 0.0 **** 0.06
22910 H 22.688695804161853 51.836534167959826 94.63014135428918 H 0.0 **** 0.06
22911 C 38.62836383682935 13.937156378029783 50.12809103925707 C 0.0 **** -0.24
22912 H 38.10628048079317 13.605220997491841 49.23031836880901 H 0.0 **** 0.06
22913 H 38.25168808920653 13.387407342912027 50.99068900291229 H 0.0 **** 0.06
22914 H 38.45969306653307 15.004006459599822 50.27378223757637 H 0.0 **** 0.06
22915 H 39.69714007835647 13.750643457544129 50.01640303280823 H 0.0 **** 0.06
22916 C 59.86951921545517 2.2249354142416564 85.92540308973403 C 0.0 **** -0.24
22917 H 59.30320226762615 1.5333246261071025 85.30110145600827 H 0.0 **** 0.06
22918 H 59.43332937227592 3.220656103855049 85.85265325554127 H 0.0 **** 0.06
22919 H 60.904600613048615 2.2544217542411786 85.58643130184743 H 0.0 **** 0.06
22920 H 59.83604500254529 1.8879971306251093 86.96157486275831 H 0.0 **** 0.06
22921 C 65.31067896899691 1.8722667948481018 93.43132659296852 C 0.0 **** -0.24
22922 H 66.30829366680189 1.6606226582990757 93.04628692422669 H 0.0 **** 0.06
22923 H 65.28665397539815 2.882634171960632 93.84009112954742 H 0.0 **** 0.06
22924 H 65.06562823849134 1.1569204536890965 94.21630086495787 H 0.0 **** 0.06
22925 H 64.58489266158116 1.7887098327086335 92.62380679688118 H 0.0 **** 0.06
22926 C 13.346323442277395 84.82302633624485 45.052863093600905 C 0.0 **** -0.24
22927 H 13.589306390443653 85.06671328686681 44.018777118813205 H 0.0 **** 0.06
22928 H 12.850554858387454 83.8528467053539 45.09041140017007 H 0.0 **** 0.06
22929 H 12.683573622322967 85.58661217332501 45.46021087541797 H 0.0 **** 0.06
22930 H 14.263367965836778 84.78559943596223 45.64078352042819 H 0.0 **** 0.06
22931 C 12.289919259485004 64.16273290644227 10.96269544434584 C 0.0 **** -0.24
22932 H 12.71562139635543 63.159830722601896 10.974931382300483 H 0.0 **** 0.06
22933 H 12.659599991639496 64.72489548871476 11.820626258618518 H 0.0 **** 0.06
22934 H 11.202798857635699 64.09623721704929 11.013138014752457 H 0.0 **** 0.06
22935 H 12.580709099232365 64.67084639209497 10.04323972500353 H 0.0 **** 0.06
22936 C 96.92436035925965 108.40455697629513 104.94813227001659 C 0.0 **** -0.24
22937 H 96.41096200223859 108.9006105993497 105.77122445507482 H 0.0 **** 0.06
22938 H 97.5534497551794 109.1254258004839 104.42459946070743 H 0.0 **** 0.06
22939 H 96.18785843307347 107.99366273200503 104.25632898642723 H 0.0 **** 0.06
22940 H 97.54359523945735 107.59775996427396 105.33941423583403 H 0.0 **** 0.06
22941 C 96.50790512810539 104.94773499008231 20.967662507673424 C 0.0 **** -0.24
22942 H 96.34835829771805 105.4344789748272 21.93001898294375 H 0.0 **** 0.06
22943 H 95.57917201360053 104.48273885894797 20.637992625824836 H 0.0 **** 0.06
22944 H 97.28009326580218 104.18569244809119 21.06975791923054 H 0.0 **** 0.06
22945 H 96.82375076276469 105.68997484846312 20.233275358286164 H 0.0 **** 0.06
22946 C 68.16114541014748 27.84483680743125 76.88818431107939 C 0.0 **** -0.24
22947 H 68.31846315366647 28.28199778854534 75.90220953317709 H 0.0 **** 0.06
22948 H 68.065582549228 26.76338824874381 76.79515432139243 H 0.0 **** 0.06
22949 H 67.24970372044224 28.254015938224597 77.32578964158569 H 0.0 **** 0.06
22950 H 69.0098506241936 28.081643276676175 77.52919209402938 H 0.0 **** 0.06
22951 C 16.85557174887177 7.133053227526089 80.00191113519116 C 0.0 **** -0.24
22952 H 17.71032959653038 7.6170336537441905 79.52860693068055 H 0.0 **** 0.06
22953 H 16.28364014280258 7.873241325260095 80.56228041133454 H 0.0 **** 0.06
22954 H 17.207829219358903 6.355436109426165 80.67883513448783 H 0.0 **** 0.06
22955 H 16.221271386351546 6.687684322263365 79.23547493283905 H 0.0 **** 0.06
22956 C 8.976105338449045 94.27794291141214 59.26539164045005 C 0.0 **** -0.24
22957 H 8.404086814896289 94.48730671616727 60.16922484513327 H 0.0 **** 0.06
22958 H 10.022977410839488 94.12384361152391 59.52633630348927 H 0.0 **** 0.06
22959 H 8.892192697036236 95.12151448336982 58.57995487930779 H 0.0 **** 0.06
22960 H 8.584436191772227 93.38053181667351 58.78790509336517 H 0.0 **** 0.06
22961 C 32.62808856551462 88.91748585873603 109.32385386848243 C 0.0 **** -0.24
22962 H 32.001056295450056 88.03299647000188 109.21312040685562 H 0.0 **** 0.06
22963 H 33.298143710088425 88.7847681156627 110.17367738027389 H 0.0 **** 0.06
22964 H 31.997580410286133 89.79097562487192 109.49086875899822 H 0.0 **** 0.06
22965 H 33.21493692432864 89.06295100655365 108.41615522603041 H 0.0 **** 0.06
22966 C 80.98016596650973 47.51735101039645 18.069305712416337 C 0.0 **** -0.24
22967 H 80.15937777680887 46.801943136891964 18.127342110712846 H 0.0 **** 0.06
22968 H 81.41533783372495 47.653049238435045 19.06016411494764 H 0.0 **** 0.06
22969 H 80.60367673563377 48.472294855770826 17.703084524386185 H 0.0 **** 0.06
22970 H 81.74110692374165 47.140871495828435 17.386327048976767 H 0.0 **** 0.06
22971 C 68.89416075117016 53.941850985642475 97.64526658612267 C 0.0 **** -0.24
22972 H 68.03921575739024 53.269054797706076 97.58816887883715 H 0.0 **** 0.06
22973 H 69.50608226607235 53.680016484272926 98.50839497259787 H 0.0 **** 0.06
22974 H 68.5412747010807 54.96867977329356 97.74636055497236 H 0.0 **** 0.06
22975 H 69.48932870691175 53.85123445516717 96.73642467004865 H 0.0 **** 0.06
22976 C 27.142707480567978 13.946553313538779 42.5702612562323 C 0.0 **** -0.24
22977 H 27.648160555007962 14.71840502597043 41.98993033090471 H 0.0 **** 0.06
22978 H 26.126895948364393 13.816518558850259 42.19523216047634 H 0.0 **** 0.06
22979 H 27.10837565790827 14.24483757014045 43.61798530407026 H 0.0 **** 0.06
22980 H 27.687087667783686 13.007196450742285 42.47730576306179 H 0.0 **** 0.06
22981 C 75.66526251593535 4.105736844373098 69.72244392980822 C 0.0 **** -0.24
22982 H 76.66356897108085 4.033318779352896 69.2891855984894 H 0.0 **** 0.06
22983 H 75.55634305588043 5.066960877395218 70.22487082010821 H 0.0 **** 0.06
22984 H 75.5247825622707 3.3001417253201453 70.44390758507187 H 0.0 **** 0.06
22985 H 74.91889212420722 4.020471836528145 68.93240025999943 H 0.0 **** 0.06
22986 C 42.30261240208276 51.512935195303385 89.81385217831303 C 0.0 **** -0.24
22987 H 41.72141378877538 52.411805994342814 90.01850627461165 H 0.0 **** 0.06
22988 H 41.6626459180782 50.76543740373728 89.34515738587548 H 0.0 **** 0.06
22989 H 42.70072754802409 51.116849812713326 90.74928880282003 H 0.0 **** 0.06
22990 H 43.1270632778847 51.75798645434469 89.14341683157205 H 0.0 **** 0.06
22991 C 96.32709303898318 17.742473517687557 44.936135134056585 C 0.0 **** -0.24
22992 H 96.29662115196601 18.207995099625236 43.951630728783414 H 0.0 **** 0.06
22993 H 97.29002544353301 17.25053591539242 45.07622967702065 H 0.0 **** 0.06
22994 H 95.52717868817012 17.006612322400258 45.014831820675525 H 0.0 **** 0.06
22995 H 96.19405863050338 18.506843660986448 45.70302371227187 H 0.0 **** 0.06
22996 C 55.603324908544494 81.93338177939631 38.75855749498572 C 0.0 **** -0.24
22997 H 56.12634491933695 82.47169659478823 39.54834230184633 H 0.0 **** 0.06
22998 H 54.544719169113876 82.19116037334207 38.782907603504896 H 0.0 **** 0.06
22999 H 55.72040521168523 80.86028993516996 38.9115476463914 H 0.0 **** 0.06
23000 H 56.02354048755063 82.21013745504985 37.79130361993134 H 0.0 **** 0.06
23001 C 19.10907904665811 101.75086846400131 55.808463520983864 C 0.0 **** -0.24
23002 H 20.07449821510835 101.24553219946688 55.75969841845801 H 0.0 **** 0.06
23003 H 19.187090570702424 102.72832337905754 55.331175333197244 H 0.0 **** 0.06
23004 H 18.81797208806188 101.87617756828126 56.85113758616982 H 0.0 **** 0.06
23005 H 18.35940230008839 101.15241197325537 55.290451467596796 H 0.0 **** 0.06
23006 C 6.3764913569542045 71.97175097122437 95.46125091511884 C 0.0 **** -0.24
23007 H 7.004308603757465 72.59443025714768 96.09857255516074 H 0.0 **** 0.06
23008 H 5.357051466163753 72.35612454892546 95.46818438162795 H 0.0 **** 0.06
23009 H 6.3825309755545305 70.94785257100843 95.83578860498274 H 0.0 **** 0.06
23010 H 6.764890867244148 71.98775341130315 94.44305565278441 H 0.0 **** 0.06
23011 C 17.65306260817067 43.6582433515199 11.010957886846342 C 0.0 **** -0.24
23012 H 18.71229052901583 43.91611685559832 11.014875734088207 H 0.0 **** 0.06
23013 H 17.528639777354158 42.639752592936816 10.64169991553726 H 0.0 **** 0.06
23014 H 17.113084208988454 44.34877163009429 10.363563988498242 H 0.0 **** 0.06
23015 H 17.259528942729844 43.72734516160074 12.025226131089994 H 0.0 **** 0.06
23016 C 100.1619494126816 71.49062987598897 82.37274061015053 C 0.0 **** -0.24
23017 H 100.14542170545991 71.27575299493101 83.44147989139874 H 0.0 **** 0.06
23018 H 99.42351712907137 70.86928516925522 81.86643303439321 H 0.0 **** 0.06
23019 H 101.15316693520333 71.27475055823496 81.9747534530954 H 0.0 **** 0.06
23020 H 99.92637771110526 72.5423804118087 82.21062139510757 H 0.0 **** 0.06
23021 C 103.71240125142788 88.76832202566999 52.20331843667651 C 0.0 **** -0.24
23022 H 102.9558427183155 89.01249647851944 52.94945174669658 H 0.0 **** 0.06
23023 H 104.17367426275696 89.68658157870115 51.8391447280394 H 0.0 **** 0.06
23024 H 103.24565486575916 88.24009128376554 51.37211693167296 H 0.0 **** 0.06
23025 H 104.47564807597873 88.13281302906859 52.654755661486774 H 0.0 **** 0.06
23026 C 11.616043864895914 97.25367197841668 2.1940620256974483 C 0.0 **** -0.24
23027 H 11.41319138788117 96.18400478039611 2.242505814127739 H 0.0 **** 0.06
23028 H 10.865778441602487 97.73787329869253 1.5678609338109197 H 0.0 **** 0.06
23029 H 12.606250643140783 97.4162033035308 1.7677687050539532 H 0.0 **** 0.06
23030 H 11.578954986959303 97.6766065310471 3.1981126497969115 H 0.0 **** 0.06
23031 C 8.717666768376574 84.13091439012146 94.19732857411742 C 0.0 **** -0.24
23032 H 8.426789920596278 83.77381963165425 93.20940557256674 H 0.0 **** 0.06
23033 H 9.738887854449885 84.50893276372477 94.16158763616127 H 0.0 **** 0.06
23034 H 8.659248580414058 83.30933348323975 94.91180462746513 H 0.0 **** 0.06
23035 H 8.044147476975553 84.92951436347954 94.5080096012145 H 0.0 **** 0.06
23036 C 62.28337112404512 83.01032966249224 8.452848209182662 C 0.0 **** -0.24
23037 H 63.332066906735065 83.23944076432959 8.268172722523019 H 0.0 **** 0.06
23038 H 62.17923294551741 81.9527823356477 8.69320773394773 H 0.0 **** 0.06
23039 H 61.69848091589395 83.23988057154678 7.560896528802516 H 0.0 **** 0.06
23040 H 61.92210486019363 83.61163170758074 9.287502288033181 H 0.0 **** 0.06
23041 C 21.009379914596536 33.194860716511556 14.785083453860803 C 0.0 **** -0.24
23042 H 20.402525728427634 32.73491622748958 15.56469996427792 H 0.0 **** 0.06
23043 H 21.659159543696887 33.94928988586139 15.229352468699613 H 0.0 **** 0.06
23044 H 20.357786849161727 33.66469141893853 14.048737460052006 H 0.0 **** 0.06
23045 H 21.616501439277044 32.43184400491262 14.29850479830655 H 0.0 **** 0.06
23046 C 42.11892744392509 7.189131268259075 55.06170549702792 C 0.0 **** -0.24
23047 H 42.88132023611763 6.42869869935214 54.89405294744227 H 0.0 **** 0.06
23048 H 41.54916033240039 6.941227231798877 55.95728737123373 H 0.0 **** 0.06
23049 H 41.448723013182416 7.224963869892491 54.202739887825665 H 0.0 **** 0.06
23050 H 42.59635364970745 8.160455165134266 55.190600666171726 H 0.0 **** 0.06
23051 C 3.4265327845482005 17.451887500173882 1.6078413498034365 C 0.0 **** -0.24
23052 H 2.4321637463585972 17.45057137139338 1.1614722841371758 H 0.0 **** 0.06
23053 H 4.095561048106305 18.064544461031517 1.0019464818706183 H 0.0 **** 0.06
23054 H 3.806282774740694 16.431404935930004 1.6492913827521534 H 0.0 **** 0.06
23055 H 3.371057852258275 17.860830328231714 2.6160427647828897 H 0.0 **** 0.06
23056 C 98.82117547396618 95.70223929796506 59.461483097469284 C 0.0 **** -0.24
23057 H 98.49532908244089 95.83211260258594 58.429897001629946 H 0.0 **** 0.06
23058 H 98.0713830515299 96.11896339371202 60.13501207479743 H 0.0 **** 0.06
23059 H 99.77024850604266 96.21782079524843 59.610291675071736 H 0.0 **** 0.06
23060 H 98.94800650442143 94.64044593706421 59.671615411061396 H 0.0 **** 0.06
23061 C 80.90848682149596 36.73451338049239 27.73456828598836 C 0.0 **** -0.24
23062 H 80.28490278073139 36.17523714387676 28.431471335102486 H 0.0 **** 0.06
23063 H 81.23955687834723 37.660353563413196 28.20629648797035 H 0.0 **** 0.06
23064 H 80.33313898507379 36.96836622483164 26.83859139080988 H 0.0 **** 0.06
23065 H 81.77729176069738 36.13461960467444 27.462828851591468 H 0.0 **** 0.06
23066 C 60.38922968949795 37.993113075762835 46.618503180279276 C 0.0 **** -0.24
23067 H 60.71587611885312 37.735001463970576 47.62533251834236 H 0.0 **** 0.06
23068 H 59.3184819547254 37.81311143883312 46.52609901543153 H 0.0 **** 0.06
23069 H 60.924660181849205 37.379046746922995 45.89422380950111 H 0.0 **** 0.06
23070 H 60.599674300314945 39.04514296291603 46.42744554863347 H 0.0 **** 0.06
23071 C 49.364783943589146 64.43905112565477 38.28666934184218 C 0.0 **** -0.24
23072 H 48.593390770010814 63.671589742847885 38.218761401174966 H 0.0 **** 0.06
23073 H 49.12050328185717 65.12898088116089 39.094890099717674 H 0.0 **** 0.06
23074 H 49.4184097188309 64.98521336732955 37.344801010085625 H 0.0 **** 0.06
23075 H 50.327583265470366 63.96840011257916 38.4893884250623 H 0.0 **** 0.06
23076 C 95.27987448690823 105.8696188586232 107.11595444894769 C 0.0 **** -0.24
23077 H 94.21673956316033 105.99359660480093 106.91018878387834 H 0.0 **** 0.06
23078 H 95.74800976963829 105.32895329345541 106.29254262298768 H 0.0 **** 0.06
23079 H 95.40846709917855 105.30757678738331 108.03996982808023 H 0.0 **** 0.06
23080 H 95.74623180530565 106.84998327101863 107.21860134473266 H 0.0 **** 0.06
23081 C 77.61865529595269 17.099371233002827 5.845951188771718 C 0.0 **** -0.24
23082 H 77.95421447209418 16.228204021893788 5.282829870180473 H 0.0 **** 0.06
23083 H 78.24407999238542 17.956301565668525 5.596274991319071 H 0.0 **** 0.06
23084 H 77.69493632205058 16.89212497088127 6.914094968614979 H 0.0 **** 0.06
23085 H 76.58188455934572 17.31837449933296 5.592219382637046 H 0.0 **** 0.06
23086 C 93.44148209806905 55.61583552599444 52.46433683837071 C 0.0 **** -0.24
23087 H 94.37473739409668 55.052411339803086 52.445478547128175 H 0.0 **** 0.06
23088 H 93.42304165645179 56.25855151635767 53.344493056888524 H 0.0 **** 0.06
23089 H 92.6010626893416 54.92354155997657 52.501660948719746 H 0.0 **** 0.06
23090 H 93.36831440855418 56.22824429102519 51.56608975954845 H 0.0 **** 0.06
23091 C 65.6285307404658 15.84491715722254 64.62223119070825 C 0.0 **** -0.24
23092 H 65.02722345499572 16.56613091700305 65.1759740342556 H 0.0 **** 0.06
23093 H 65.48219317529978 15.996867337555784 63.55240252716308 H 0.0 **** 0.06
23094 H 65.32304360104655 14.833658371969136 64.89192763112499 H 0.0 **** 0.06
23095 H 66.68108477590847 15.984636841514032 64.86845927913657 H 0.0 **** 0.06
23096 C 95.28142208847511 59.224480360029816 87.61411320170926 C 0.0 **** -0.24
23097 H 95.17995108023261 58.27702596633172 87.08603498139256 H 0.0 **** 0.06
23098 H 95.89611990471249 59.90514811049883 87.02488414275192 H 0.0 **** 0.06
23099 H 95.75453512656512 59.05203973845544 88.58125393071006 H 0.0 **** 0.06
23100 H 94.2945449140877 59.663356709316645 87.76504668492709 H 0.0 **** 0.06
23101 C 73.98230329752187 13.833781602000926 21.608656494928567 C 0.0 **** -0.24
23102 H 74.87520082632182 13.239245196391494 21.80130985339889 H 0.0 **** 0.06
23103 H 74.14075397150964 14.852134349388962 21.96492321707416 H 0.0 **** 0.06
23104 H 73.13360856936913 13.393808469806771 22.131490809702342 H 0.0 **** 0.06
23105 H 73.78077885474056 13.850001770770973 20.537751434191364 H 0.0 **** 0.06
23106 C 61.44366590698826 88.37198158181928 72.08821345067972 C 0.0 **** -0.24
23107 H 62.40941697401814 88.44977143689613 71.58700833398842 H 0.0 **** 0.06
23108 H 61.404311324985656 89.08572605527425 72.91149101000394 H 0.0 **** 0.06
23109 H 61.31788769161784 87.36176280011819 72.47685941110058 H 0.0 **** 0.06
23110 H 60.64702848911236 88.58960883777104 71.37768477224546 H 0.0 **** 0.06
23111 C 24.48606817251624 22.852911419019478 75.97509765992902 C 0.0 **** -0.24
23112 H 24.82133256640992 22.413399969328708 75.03572535371723 H 0.0 **** 0.06
23113 H 24.05852160034118 22.074697177682054 76.60819120905416 H 0.0 **** 0.06
23114 H 23.731287477907955 23.61279298044596 75.77230469718367 H 0.0 **** 0.06
23115 H 25.333678195536635 23.310061844399826 76.48527368962732 H 0.0 **** 0.06
23116 C 100.75062684875738 55.63652945725144 0.7458521192516514 C 0.0 **** -0.24
23117 H 101.1869655557745 54.64088174363519 0.8282356479551822 H 0.0 **** 0.06
23118 H 100.62465846037078 56.06191158775218 1.740601728160641 H 0.0 **** 0.06
23119 H 99.7800022017607 55.568827355914124 0.25352079567964836 H 0.0 **** 0.06
23120 H 101.41145802840184 56.27491110452337 0.15831237282380073 H 0.0 **** 0.06
23121 C 17.368231176683707 82.9813197088762 66.91030636012033 C 0.0 **** -0.24
23122 H 18.281897947647792 82.41986574455483 67.10606987236315 H 0.0 **** 0.06
23123 H 17.61477450849827 84.03210049189268 66.75518047968876 H 0.0 **** 0.06
23124 H 16.69442916954722 82.88699773182852 67.76177983226182 H 0.0 **** 0.06
23125 H 16.883855673863764 82.58607886701836 66.01729352558056 H 0.0 **** 0.06
23126 C 7.326914845283028 23.544051021609505 34.14244750296888 C 0.0 **** -0.24
23127 H 8.028236946123656 23.351047784034847 34.95407544212867 H 0.0 **** 0.06
23128 H 7.295712549863879 24.614347419766474 33.936515619854106 H 0.0 **** 0.06
23129 H 6.333532972553158 23.200035262298996 34.43002612419929 H 0.0 **** 0.06
23130 H 7.6522061352659705 23.011945728709435 33.24845958339159 H 0.0 **** 0.06
23131 C 81.95200972837029 9.719060067919258 94.26375165099748 C 0.0 **** -0.24
23132 H 83.03809389361271 9.735906623374149 94.35764665334989 H 0.0 **** 0.06
23133 H 81.50876886142862 10.304585372275142 95.06979231983628 H 0.0 **** 0.06
23134 H 81.59852492155974 8.689915316508745 94.32526932366663 H 0.0 **** 0.06
23135 H 81.66389111382537 10.146161772530832 93.30289386255534 H 0.0 **** 0.06
23136 C 18.728321907118016 95.25516646408592 106.4206850601465 C 0.0 **** -0.24
23137 H 18.20529828598147 95.87643389859961 105.69462042099012 H 0.0 **** 0.06
23138 H 19.005105983619217 95.86030023977526 107.28362046891642 H 0.0 **** 0.06
23139 H 19.627317233202234 94.84101895861922 105.96407897658001 H 0.0 **** 0.06
23140 H 18.076183620326177 94.4425418245714 106.74111402911772 H 0.0 **** 0.06
23141 C 90.88615030862759 8.617335779735015 98.66153792809347 C 0.0 **** -0.24
23142 H 91.86409597940781 8.85041658705478 99.08447945949956 H 0.0 **** 0.06
23143 H 90.92367228862595 8.727536776123856 97.57782592813021 H 0.0 **** 0.06
23144 H 90.14209850199764 9.300059503090196 99.0723604075623 H 0.0 **** 0.06
23145 H 90.61744394292145 7.59190318317053 98.91331102600718 H 0.0 **** 0.06
23146 C 12.67821934209556 18.61892999357559 92.75786765619412 C 0.0 **** -0.24
23147 H 12.44692315439815 19.549577287134838 93.27626090783022 H 0.0 **** 0.06
23148 H 12.527919200141326 18.753506024878064 91.68642187972793 H 0.0 **** 0.06
23149 H 12.021439929290239 17.82822481934207 93.12154612685515 H 0.0 **** 0.06
23150 H 13.715422996490446 18.345043280710428 92.94771877956089 H 0.0 **** 0.06
23151 C 9.617034810280927 100.47323192809962 35.709362883240956 C 0.0 **** -0.24
23152 H 9.400643640851001 100.83458032346219 34.703594467964436 H 0.0 **** 0.06
23153 H 9.131587800852742 101.12111130277549 36.43982946297186 H 0.0 **** 0.06
23154 H 10.693755500371026 100.4803574281488 35.874243354726644 H 0.0 **** 0.06
23155 H 9.238913451925157 99.45642476072707 35.81708151934555 H 0.0 **** 0.06
23156 C 62.095739843562114 56.67724336398477 60.31205384650312 C 0.0 **** -0.24
23157 H 62.15178580154918 56.36838253940516 61.355492711624464 H 0.0 **** 0.06
23158 H 61.572654406829656 55.91361006577275 59.73503759516015 H 0.0 **** 0.06
23159 H 63.103260666548636 56.80595833438365 59.916600804641945 H 0.0 **** 0.06
23160 H 61.55472989201368 57.62019249264517 60.2409062732803 H 0.0 **** 0.06
23161 C 101.78555570173421 0.2925076330739955 12.380680245094709 C 0.0 **** -0.24
23162 H 102.29070855452443 0.1881950824759997 11.420093245186166 H 0.0 **** 0.06
23163 H 102.3844155465055 0.9222809958932316 13.039750299310185 H 0.0 **** 0.06
23164 H 101.65924947791771 -0.6905038295152792 12.83351909854359 H 0.0 **** 0.06
23165 H 100.80771110234133 0.7509534405082547 12.227881935031775 H 0.0 **** 0.06
23166 C 35.238151525546186 101.04868846162802 109.12993069343945 C 0.0 **** -0.24
23167 H 35.57218882251928 101.90854864858039 109.71072705577387 H 0.0 **** 0.06
23168 H 34.15341937377025 101.07836333615586 109.02855806838114 H 0.0 **** 0.06
23169 H 35.53132431078228 100.13020397521336 109.63853745371435 H 0.0 **** 0.06
23170 H 35.69649430466751 101.0795378282875 108.14105349346055 H 0.0 **** 0.06
23171 C 83.96087943151957 83.19357319468472 65.88349268782258 C 0.0 **** -0.24
23172 H 84.62246501826598 82.33425083197682 65.9946928280242 H 0.0 **** 0.06
23173 H 84.20060525939996 83.71980349289376 64.95945314828265 H 0.0 **** 0.06
23174 H 84.09478611926116 83.8672228108212 66.73036050365158 H 0.0 **** 0.06
23175 H 82.92645730341889 82.85360313341545 65.84961031782888 H 0.0 **** 0.06
23176 C 50.53856590823739 1.903027073156636 0.04978657867317171 C 0.0 **** -0.24
23177 H 50.41698555396562 2.973514405806668 0.2102978601231209 H 0.0 **** 0.06
23178 H 51.34605555932234 1.7321105120551579 -0.6623671065241883 H 0.0 **** 0.06
23179 H 49.61085940571209 1.486932630555259 -0.3454235118022453 H 0.0 **** 0.06
23180 H 50.77946308055661 1.4186506435976867 0.9960227467865161 H 0.0 **** 0.06
23181 C 68.06493983911116 62.34122298578306 16.9066445986374 C 0.0 **** -0.24
23182 H 67.42092642427792 61.464851912608495 16.97411524978861 H 0.0 **** 0.06
23183 H 69.10892525796316 62.02909378189358 16.935930651024904 H 0.0 **** 0.06
23184 H 67.86055263426826 63.006516718186475 17.745891293172605 H 0.0 **** 0.06
23185 H 67.86864114233572 62.86532078095499 15.97147553972448 H 0.0 **** 0.06
23186 C 84.16708324473461 6.765821313783608 98.88130682307589 C 0.0 **** -0.24
23187 H 83.27292356132162 6.459002338300797 99.42191789587386 H 0.0 **** 0.06
23188 H 85.02224357558597 6.757460051546012 99.55803337189413 H 0.0 **** 0.06
23189 H 84.02568373034438 7.772150552877902 98.48695227647416 H 0.0 **** 0.06
23190 H 84.34837440909916 6.074726996345365 98.05722788580388 H 0.0 **** 0.06
23191 C 91.74691786063059 109.51870801983893 50.24487689888886 C 0.0 **** -0.24
23192 H 91.87797263798349 108.46207119591968 50.48013457806569 H 0.0 **** 0.06
23193 H 90.68448912138193 109.7369372742854 50.13441851982662 H 0.0 **** 0.06
23194 H 92.26535696297961 109.75000560099578 49.31453546958072 H 0.0 **** 0.06
23195 H 92.16084418958074 110.12431235893995 51.05174200071833 H 0.0 **** 0.06
23196 C 22.87180201540133 46.44157971631839 2.1265745875105155 C 0.0 **** -0.24
23197 H 21.844249166603106 46.282661232093176 1.8010106574647535 H 0.0 **** 0.06
23198 H 23.165547405246713 47.46944597899724 1.9122932642128339 H 0.0 **** 0.06
23199 H 23.532193395962054 45.75614138056608 1.5946926341819925 H 0.0 **** 0.06
23200 H 22.94521809379316 46.25807027361708 3.1983017941825356 H 0.0 **** 0.06
23201 C 36.74477800251637 88.39653791279027 96.39489077636429 C 0.0 **** -0.24
23202 H 35.71806797683776 88.08884764328366 96.59259528874664 H 0.0 **** 0.06
23203 H 36.85420124720257 89.45899693266426 96.61411505665873 H 0.0 **** 0.06
23204 H 36.98311431887943 88.21535246777928 95.3471234043942 H 0.0 **** 0.06
23205 H 37.42372846714565 87.82295460743393 97.0257293556573 H 0.0 **** 0.06
23206 C 49.86304613555052 66.34755752791042 104.86744752751683 C 0.0 **** -0.24
23207 H 49.25805420639522 67.18870855873443 105.2062005087692 H 0.0 **** 0.06
23208 H 50.39246734512814 65.91472521042272 105.71629983210221 H 0.0 **** 0.06
23209 H 50.584300767602244 66.69395317569726 104.12712213753206 H 0.0 **** 0.06
23210 H 49.21709905030964 65.59240124284345 104.4193100228549 H 0.0 **** 0.06
23211 C 36.09511884929458 46.656001937975084 34.0007268330383 C 0.0 **** -0.24
23212 H 36.44390726261963 46.774183650367185 32.97424563620649 H 0.0 **** 0.06
23213 H 36.43070175783083 45.69377144850566 34.38839485341265 H 0.0 **** 0.06
23214 H 35.006416609682674 46.696289254612836 34.020955263345115 H 0.0 **** 0.06
23215 H 36.50075402385494 47.45807930224589 34.61697422390279 H 0.0 **** 0.06
23216 C 64.77234787420758 48.114391964107114 60.76158261948564 C 0.0 **** -0.24
23217 H 65.17581881387434 48.25293370042999 61.76414244425541 H 0.0 **** 0.06
23218 H 63.98381666909995 48.84568774732142 60.58232328388402 H 0.0 **** 0.06
23219 H 64.36237653199015 47.10755374316497 60.671753636077995 H 0.0 **** 0.06
23220 H 65.56682137400657 48.24988575877933 60.027464664689916 H 0.0 **** 0.06
23221 C 40.50752786392957 54.43526170083223 91.99742808675029 C 0.0 **** -0.24
23222 H 40.78771630335342 55.34855256746667 92.52342728166485 H 0.0 **** 0.06
23223 H 40.9694707217958 54.42912999125508 91.01024671827213 H 0.0 **** 0.06
23224 H 39.42356015485461 54.396415199667615 91.89186864690453 H 0.0 **** 0.06
23225 H 40.84935311056569 53.56990107828037 92.56470432190719 H 0.0 **** 0.06
23226 C 24.303396875690567 65.7659056766554 109.16454754971815 C 0.0 **** -0.24
23227 H 24.85503452082088 66.43802998736254 109.82151076073804 H 0.0 **** 0.06
23228 H 23.28913456760543 65.63913397952905 109.54452626499685 H 0.0 **** 0.06
23229 H 24.803157143398863 64.79827060184368 109.13322904980252 H 0.0 **** 0.06
23230 H 24.26575762196353 66.18868927523079 108.16126837083738 H 0.0 **** 0.06
23231 C 34.559243645609286 2.639419738686229 71.68543339558272 C 0.0 **** -0.24
23232 H 34.09525209563452 2.8046488833143144 70.71348895625255 H 0.0 **** 0.06
23233 H 35.58368847264143 3.012676330525366 71.66679932770131 H 0.0 **** 0.06
23234 H 34.564968220033506 1.5721251727544967 71.90907922025787 H 0.0 **** 0.06
23235 H 33.99306579412752 3.1682285681505107 72.4523660781195 H 0.0 **** 0.06
23236 C 4.24100932000276 42.15535276232356 15.259913768629517 C 0.0 **** -0.24
23237 H 3.53914348227687 41.58612912680519 15.870166755819582 H 0.0 **** 0.06
23238 H 5.259509628513854 41.94403134210887 15.586173265372736 H 0.0 **** 0.06
23239 H 4.036150011699846 43.22021810430965 15.3701831147979 H 0.0 **** 0.06
23240 H 4.127417942014247 41.86947841165579 14.214644103003494 H 0.0 **** 0.06
23241 C 23.66443873977437 47.514997869050475 28.74385796279222 C 0.0 **** -0.24
23242 H 22.58433043014236 47.50325215947297 28.887523918686327 H 0.0 **** 0.06
23243 H 24.16044128792265 47.41773958023533 29.71081984376383 H 0.0 **** 0.06
23244 H 23.958876952546674 48.454533233156766 28.27668424729876 H 0.0 **** 0.06
23245 H 23.95444989750304 46.68252777418171 28.101861085182634 H 0.0 **** 0.06
23246 C 24.12859024682004 31.626599901837096 45.046870117338536 C 0.0 **** -0.24
23247 H 23.58045024530594 30.857276698577095 45.5919621071049 H 0.0 **** 0.06
23248 H 23.426482471332406 32.243534772496275 44.486192945166614 H 0.0 **** 0.06
23249 H 24.828254083239898 31.153576563775516 44.35803103235542 H 0.0 **** 0.06
23250 H 24.678324353013068 32.25000376884958 45.75241098819034 H 0.0 **** 0.06
23251 C 50.235278162935856 23.64764682706614 65.16053569020102 C 0.0 **** -0.24
23252 H 50.63939424357267 23.716054989594344 66.17087197729455 H 0.0 **** 0.06
23253 H 50.09220187111907 22.599954706354406 64.89654090920078 H 0.0 **** 0.06
23254 H 50.930755892205354 24.108738881857597 64.45961580695223 H 0.0 **** 0.06
23255 H 49.27720098142413 24.167312134587583 65.11721096415852 H 0.0 **** 0.06
23256 C 30.02999111411293 45.85272806687544 95.40708340129515 C 0.0 **** -0.24
23257 H 29.656572798839022 46.45560472117887 94.57883259121321 H 0.0 **** 0.06
23258 H 29.381282264461447 44.987250089192116 95.54709279385511 H 0.0 **** 0.06
23259 H 30.03805828186077 46.45209290496604 96.31731280152489 H 0.0 **** 0.06
23260 H 31.042169289896634 45.516248003158466 95.18392125867202 H 0.0 **** 0.06
23261 C 18.545268338485897 5.235323743985106 96.83983674550733 C 0.0 **** -0.24
23262 H 17.757538829773736 5.385375927044862 97.57906573281866 H 0.0 **** 0.06
23263 H 18.205262071947686 4.526173100433596 96.08532899149833 H 0.0 **** 0.06
23264 H 19.434722757450317 4.84391825444078 97.33240692904417 H 0.0 **** 0.06
23265 H 18.78231116513237 6.186932692003154 96.36404375168061 H 0.0 **** 0.06
23266 C 90.13950638907716 24.545486542551657 106.48965428566967 C 0.0 **** -0.24
23267 H 89.54068909473915 24.70860598829664 107.38620813355959 H 0.0 **** 0.06
23268 H 90.11660809607991 25.442141737448214 105.86910769852389 H 0.0 **** 0.06
23269 H 89.73207552794005 23.703376961422162 105.92944052828534 H 0.0 **** 0.06
23270 H 91.16857245777146 24.327836852012574 106.77609540769618 H 0.0 **** 0.06
23271 C 40.09340717739269 93.98274854792061 81.42803711110909 C 0.0 **** -0.24
23272 H 39.80607097796002 93.52197103866828 80.48307899299566 H 0.0 **** 0.06
23273 H 39.213124276805246 94.41791794972835 81.90263961860434 H 0.0 **** 0.06
23274 H 40.829548015059345 94.76535835999536 81.24149096152713 H 0.0 **** 0.06
23275 H 40.52532120299304 93.22758581913604 82.08428429020796 H 0.0 **** 0.06
23276 C 49.9900092538922 83.70138651095213 44.12738169966019 C 0.0 **** -0.24
23277 H 51.07225009987678 83.56957495015168 44.131780975447555 H 0.0 **** 0.06
23278 H 49.57034555721248 83.28976279362269 45.04544551810517 H 0.0 **** 0.06
23279 H 49.56535261573043 83.1826174860621 43.26756640947235 H 0.0 **** 0.06
23280 H 49.75429926792094 84.76342101626119 44.06369224093095 H 0.0 **** 0.06
23281 C 37.769545886508126 77.95529180844474 0.2203124690947078 C 0.0 **** -0.24
23282 H 38.69086593949809 77.43633126960441 -0.043342913426698715 H 0.0 **** 0.06
23283 H 37.90921122151414 78.48459790547992 1.1634946204903116 H 0.0 **** 0.06
23284 H 36.96203738696771 77.2310361065409 0.325586135135822 H 0.0 **** 0.06
23285 H 37.51703370611948 78.66972263022112 -0.5635944716749464 H 0.0 **** 0.06
23286 C 105.98614136574776 46.98391962498022 34.90044394241647 C 0.0 **** -0.24
23287 H 105.40869483390327 46.57851798501281 34.0696245431528 H 0.0 **** 0.06
23288 H 106.06105409241093 48.06646510577315 34.79671719890453 H 0.0 **** 0.06
23289 H 106.98475331821322 46.54764726161102 34.895707816476744 H 0.0 **** 0.06
23290 H 105.4876182153987 46.74303853518245 35.83987508992007 H 0.0 **** 0.06
23291 C 20.17191341814683 68.33646685415086 0.44341790418285143 C 0.0 **** -0.24
23292 H 20.414380736685757 67.70264193321816 -0.409212380679989 H 0.0 **** 0.06
23293 H 20.62119701278189 69.320211235365 0.3027830187976406 H 0.0 **** 0.06
23294 H 20.562602488542296 67.8850003150217 1.3545017641704078 H 0.0 **** 0.06
23295 H 19.08984534398789 68.43860579636356 0.5234751549147774 H 0.0 **** 0.06
23296 C 18.0234125271203 15.771634942562429 71.73117641271043 C 0.0 **** -0.24
23297 H 18.270948553874433 14.910902389310621 72.35261286258509 H 0.0 **** 0.06
23298 H 17.083744943588247 16.20607583031969 72.07168014067113 H 0.0 **** 0.06
23299 H 17.922010031593214 15.453199748579578 70.69368114845923 H 0.0 **** 0.06
23300 H 18.816889524859565 16.514177780537892 71.8078392410336 H 0.0 **** 0.06
23301 C 109.30037270463397 10.761555843235184 67.18018063219239 C 0.0 **** -0.24
23302 H 110.01580037494611 11.204439317216394 67.87350694004607 H 0.0 **** 0.06
23303 H 108.79667501498993 9.924918692133856 67.66450158464198 H 0.0 **** 0.06
23304 H 109.82599108654985 10.407003494226862 66.29377959922687 H 0.0 **** 0.06
23305 H 108.56502646630861 11.511696472159862 66.89083868320711 H 0.0 **** 0.06
23306 C 69.99343513305479 74.6846804006077 74.80103857990959 C 0.0 **** -0.24
23307 H 70.17780337438793 75.04045940390154 75.81498016735672 H 0.0 **** 0.06
23308 H 69.29073883792228 75.35401916827186 74.30403915431705 H 0.0 **** 0.06
23309 H 69.57443701786414 73.67948601796991 74.83976408589774 H 0.0 **** 0.06
23310 H 70.93212635324608 74.66570416734345 74.24686750160663 H 0.0 **** 0.06
23311 C 106.32313050903147 54.14167255690549 25.622589780087424 C 0.0 **** -0.24
23312 H 106.8434607744245 54.083997525504714 26.578073853926043 H 0.0 **** 0.06
23313 H 105.42557102945196 53.52375433327879 25.660205600381886 H 0.0 **** 0.06
23314 H 106.97872027260105 53.78277848908016 24.82983766144946 H 0.0 **** 0.06
23315 H 106.04401220905187 55.17679918492445 25.4223729720851 H 0.0 **** 0.06
23316 C 72.49103170681843 9.266681771153856 31.33729023391193 C 0.0 **** -0.24
23317 H 72.10959970296261 9.441255606742871 32.343518579516385 H 0.0 **** 0.06
23318 H 72.97184833407084 8.288275252391017 31.29552873676849 H 0.0 **** 0.06
23319 H 73.21782680501292 10.039474507792107 31.084960717839863 H 0.0 **** 0.06
23320 H 71.66699200929469 9.297145718229032 30.625450843371453 H 0.0 **** 0.06
23321 C 54.03668084998222 106.9550647581653 25.438906170190165 C 0.0 **** -0.24
23322 H 54.03604820069745 105.86524292479723 25.466921418529637 H 0.0 **** 0.06
23323 H 53.51521653288731 107.29528834593549 24.544271754942713 H 0.0 **** 0.06
23324 H 55.06519290418663 107.31654979410897 25.420894433383097 H 0.0 **** 0.06
23325 H 53.53153223803059 107.34028164531634 26.323625675748474 H 0.0 **** 0.06
23326 C 33.625461556321255 13.290187423166643 32.53019274910173 C 0.0 **** -0.24
23327 H 32.68382963387202 13.838344145453817 32.514433348528144 H 0.0 **** 0.06
23328 H 34.34072856432866 13.816459163116107 33.161480303465396 H 0.0 **** 0.06
23329 H 34.019181437264905 13.216838245221254 31.51705240607788 H 0.0 **** 0.06
23330 H 33.4559033973737 12.2893542398038 32.92751232064711 H 0.0 **** 0.06
23331 C 62.72153468260505 85.22760513661858 90.2827717003688 C 0.0 **** -0.24
23332 H 62.34212836119103 85.19084430189288 91.30419735738953 H 0.0 **** 0.06
23333 H 63.01464130890625 86.24879156140685 90.04025236640275 H 0.0 **** 0.06
23334 H 61.94328898687647 84.89886636052049 89.59499611813062 H 0.0 **** 0.06
23335 H 63.587490848666306 84.57038604629854 90.19474942156694 H 0.0 **** 0.06
23336 C 61.12454540557252 63.45208415790097 57.111592429617374 C 0.0 **** -0.24
23337 H 61.170616687786946 63.3613041772831 56.027023748721525 H 0.0 **** 0.06
23338 H 60.13652105429003 63.80510196254323 57.40565047430997 H 0.0 **** 0.06
23339 H 61.88048857276135 64.16269887592563 57.44783874161063 H 0.0 **** 0.06
23340 H 61.31414639152973 62.4789121806391 57.565804596442916 H 0.0 **** 0.06
23341 C 88.4409569384118 92.49566215834199 74.95473334469193 C 0.0 **** -0.24
23342 H 89.05058622981991 93.106663611247 74.28938967961443 H 0.0 **** 0.06
23343 H 88.1653789023002 93.08078509145832 75.83279246673925 H 0.0 **** 0.06
23344 H 89.00995457206076 91.61955337343528 75.26579435529806 H 0.0 **** 0.06
23345 H 87.54044930531387 92.17722733040102 74.43116573306844 H 0.0 **** 0.06
23346 C 73.47580668849969 58.23344429357934 107.37156550608395 C 0.0 **** -0.24
23347 H 74.05581978309547 57.33446005692696 107.58113658176566 H 0.0 **** 0.06
23348 H 74.06000335130724 58.90389253664267 106.74111623507358 H 0.0 **** 0.06
23349 H 73.23154930704635 58.73401729443316 108.30774967336458 H 0.0 **** 0.06
23350 H 72.5550195895973 57.95877604529744 106.85508469192118 H 0.0 **** 0.06
23351 C 62.99813463224075 20.233696678846968 45.26616985476895 C 0.0 **** -0.24
23352 H 62.657858693169416 19.208632836269942 45.115619789746404 H 0.0 **** 0.06
23353 H 63.69630394027838 20.504379876535552 44.47525582935839 H 0.0 **** 0.06
23354 H 63.496022126528686 20.311899515180414 46.23347296189395 H 0.0 **** 0.06
23355 H 62.14152452393033 20.907770506339432 45.243311829518376 H 0.0 **** 0.06
23356 C 108.08658456249128 7.779421879854823 103.88818137356041 C 0.0 **** -0.24
23357 H 108.60283587327916 6.89799092027144 103.50953662345329 H 0.0 **** 0.06
23358 H 108.26869732479992 8.622274647588483 103.2207009871246 H 0.0 **** 0.06
23359 H 108.45896306677903 8.017768870124968 104.88519787050568 H 0.0 **** 0.06
23360 H 107.01612907708957 7.579837187956258 103.93823008364936 H 0.0 **** 0.06
23361 C 84.1770710492653 78.52930031439122 72.59008003024937 C 0.0 **** -0.24
23362 H 83.97336355039494 78.39359619652201 73.65275851638685 H 0.0 **** 0.06
23363 H 83.96499881614835 77.60097905730919 72.05874216871642 H 0.0 **** 0.06
23364 H 85.22475912434692 78.79658391184526 72.45218862619623 H 0.0 **** 0.06
23365 H 83.54407501000543 79.3249653602477 72.19854336382896 H 0.0 **** 0.06
23366 C 58.03402722774382 40.74339952479693 77.0465929867184 C 0.0 **** -0.24
23367 H 58.43878853346365 41.1698846918255 77.96524614621171 H 0.0 **** 0.06
23368 H 58.786083615261475 40.10691020810657 76.58014962284267 H 0.0 **** 0.06
23369 H 57.76137348740778 41.546639236545374 76.36230667909814 H 0.0 **** 0.06
23370 H 57.149716676208925 40.150636559329854 77.28106855240003 H 0.0 **** 0.06
23371 C 79.11786501302808 66.48147571144838 1.397837158497751 C 0.0 **** -0.24
23372 H 79.45035849278185 65.94359483959073 0.5099801206337276 H 0.0 **** 0.06
23373 H 79.98497651320523 66.8676428049846 1.9339579488329406 H 0.0 **** 0.06
23374 H 78.56163381124358 65.80412679356135 2.045543216730863 H 0.0 **** 0.06
23375 H 78.47534850248206 67.30992500972147 1.1009245146550057 H 0.0 **** 0.06
23376 C 37.74013865550569 7.177494413506196 59.7550786751637 C 0.0 **** -0.24
23377 H 36.67957812683076 7.417927666005625 59.679176816867596 H 0.0 **** 0.06
23378 H 38.261842000250454 7.552572173158239 58.87509792872976 H 0.0 **** 0.06
23379 H 37.86274764791827 6.096094610583677 59.81677448210877 H 0.0 **** 0.06
23380 H 38.15493243444405 7.6410351506032725 60.65043670047203 H 0.0 **** 0.06
23381 C 38.999023844169955 81.23315312803459 97.69100915962811 C 0.0 **** -0.24
23382 H 38.60367218306028 80.81294585090204 98.61536176124343 H 0.0 **** 0.06
23383 H 38.55167750614294 80.71989486088547 96.83867579548371 H 0.0 **** 0.06
23384 H 40.080879990842405 81.10185962646061 97.66677768446122 H 0.0 **** 0.06
23385 H 38.759851960329286 82.29493559680814 97.64284690285726 H 0.0 **** 0.06
23386 C 38.44995492613276 102.27808596297353 30.011822667478476 C 0.0 **** -0.24
23387 H 39.09762094709751 102.75578403898542 30.74723626300299 H 0.0 **** 0.06
23388 H 37.85620288825913 101.50505068615297 30.499284280197386 H 0.0 **** 0.06
23389 H 39.0593271425397 101.8294870867368 29.227485114816716 H 0.0 **** 0.06
23390 H 37.78586185288498 103.02492939521169 29.57466225027415 H 0.0 **** 0.06
23391 C 82.83131810627617 39.52099607946199 85.6264383335236 C 0.0 **** -0.24
23392 H 82.91080174138847 39.40617919157175 86.7064189750962 H 0.0 **** 0.06
23393 H 83.39548178245099 38.72839333343724 85.13422991239875 H 0.0 **** 0.06
23394 H 83.23525896692587 40.490175072273985 85.33294770401838 H 0.0 **** 0.06
23395 H 81.78334178166034 39.45943141999838 85.33047996642794 H 0.0 **** 0.06
23396 C 81.55058501553033 78.00807426959514 2.43736589876724 C 0.0 **** -0.24
23397 H 81.03718877904224 77.58305313924399 3.2994628614805777 H 0.0 **** 0.06
23398 H 81.2772474641095 77.45020894948533 1.5414346756442683 H 0.0 **** 0.06
23399 H 82.62752118116373 77.9472727570344 2.589258815390167 H 0.0 **** 0.06
23400 H 81.25820420528977 79.05134975212357 2.3190164860446885 H 0.0 **** 0.06
23401 C 91.58742266000114 65.67135040360989 52.40770817306645 C 0.0 **** -0.24
23402 H 90.92842616126872 65.42890461165314 53.24210410662465 H 0.0 **** 0.06
23403 H 91.4963512940894 66.73195028783738 52.17047870255857 H 0.0 **** 0.06
23404 H 91.3060299637623 65.07807642196028 51.5380404402037 H 0.0 **** 0.06
23405 H 92.61806532899732 65.44664564125279 52.683259164392894 H 0.0 **** 0.06
23406 C 49.379567695545944 57.91278484206581 58.13793468015345 C 0.0 **** -0.24
23407 H 48.57761068676132 58.64785600874942 58.20684189871825 H 0.0 **** 0.06
23408 H 49.0829209756896 57.114246330282775 57.45799289863781 H 0.0 **** 0.06
23409 H 49.57571764032454 57.496821777157614 59.125853077808614 H 0.0 **** 0.06
23410 H 50.2822351254199 58.39463067277893 57.761397825957395 H 0.0 **** 0.06
23411 C 42.153543922277876 60.034619286023144 96.69999449006104 C 0.0 **** -0.24
23412 H 41.31723527563341 59.33634874935166 96.6755211730657 H 0.0 **** 0.06
23413 H 42.01305470713886 60.73998916299513 97.51908727179978 H 0.0 **** 0.06
23414 H 42.202056274316874 60.57794435275025 95.7564965996936 H 0.0 **** 0.06
23415 H 43.081992352180094 59.483451407109385 96.84952157285417 H 0.0 **** 0.06
23416 C 93.22972399884074 86.96241483731886 21.157051135972438 C 0.0 **** -0.24
23417 H 92.62714487866339 87.34123046301708 20.331846335697918 H 0.0 **** 0.06
23418 H 92.79121530681348 87.27824048602727 22.1035283611059 H 0.0 **** 0.06
23419 H 94.24318941201196 87.35534016816382 21.07676168208613 H 0.0 **** 0.06
23420 H 93.25877321166975 85.87316027197735 21.115728693559333 H 0.0 **** 0.06
23421 C 35.640691758318525 67.7369308512325 14.143431014619239 C 0.0 **** -0.24
23422 H 35.3057177296717 66.7974373821358 13.703303410344432 H 0.0 **** 0.06
23423 H 35.31094323015296 67.78993074037959 15.181124994368886 H 0.0 **** 0.06
23424 H 35.215973703209585 68.5708720247265 13.583192997535605 H 0.0 **** 0.06
23425 H 36.72850372423517 67.78887380409833 14.103657963112013 H 0.0 **** 0.06
23426 C 69.32655081505214 82.71479375449923 12.92127230554135 C 0.0 **** -0.24
23427 H 69.55909128855892 83.18650884591042 13.876978199773816 H 0.0 **** 0.06
23428 H 70.09181728127395 82.97942833883218 12.191236922003469 H 0.0 **** 0.06
23429 H 68.35447622331742 83.06241991413083 12.571528250343391 H 0.0 **** 0.06
23430 H 69.30256200507696 81.6329334662368 13.047892461369486 H 0.0 **** 0.06
23431 C 15.853356327645912 66.527622817525 65.054673577154 C 0.0 **** -0.24
23432 H 16.29834367763894 66.157708689059 64.13097467728426 H 0.0 **** 0.06
23433 H 16.415171435969285 67.39363395633292 65.40725327749476 H 0.0 **** 0.06
23434 H 15.881450051752608 65.74349712895707 65.81073936110812 H 0.0 **** 0.06
23435 H 14.819191259582624 66.81651471151618 64.86887821158649 H 0.0 **** 0.06
23436 C 38.373639267418184 13.378034853353938 95.5968667635026 C 0.0 **** -0.24
23437 H 37.513545034209756 13.061876032676423 95.0078291559145 H 0.0 **** 0.06
23438 H 38.057017497035815 14.118836710939263 96.33203558450896 H 0.0 **** 0.06
23439 H 39.12320939801981 13.817985038361314 94.9378095581959 H 0.0 **** 0.06
23440 H 38.800692416180596 12.5164294365552 96.1087608066189 H 0.0 **** 0.06
23441 C 57.378675573006916 67.26619157151782 71.85749637895648 C 0.0 **** -0.24
23442 H 56.911971044223264 66.48639912545258 71.25536806678792 H 0.0 **** 0.06
23443 H 57.25434437653149 68.22960669222027 71.36263787150364 H 0.0 **** 0.06
23444 H 58.440016825714 67.0497495049517 71.97103643969288 H 0.0 **** 0.06
23445 H 56.90579163077132 67.29782626824192 72.8392259251388 H 0.0 **** 0.06
23446 C 31.096770019503396 72.507748453864 80.28906843375722 C 0.0 **** -0.24
23447 H 30.851940359905512 71.44924302996469 80.3818725961354 H 0.0 **** 0.06
23448 H 32.16174958923361 72.61862219190806 80.08633371174852 H 0.0 **** 0.06
23449 H 30.84748786092905 73.02017145299192 81.21786599141285 H 0.0 **** 0.06
23450 H 30.523292182684713 72.94119711467158 79.4691572572508 H 0.0 **** 0.06
23451 C 5.9544073998415 6.578808935463073 45.7942275788742 C 0.0 **** -0.24
23452 H 5.932987167435812 7.495047330238208 45.20409433444189 H 0.0 **** 0.06
23453 H 4.9386876610187755 6.307179652050024 46.08112789597607 H 0.0 **** 0.06
23454 H 6.555093547389816 6.737933511020302 46.68990464052632 H 0.0 **** 0.06
23455 H 6.392257197136615 5.775161105238496 45.20199317148837 H 0.0 **** 0.06
23456 C 24.459608388119815 51.43729806247882 37.099588460427526 C 0.0 **** -0.24
23457 H 24.780614340541426 51.7664166294802 36.1111067820932 H 0.0 **** 0.06
23458 H 23.3708337769496 51.39875893046646 37.13331444813417 H 0.0 **** 0.06
23459 H 24.821446510154356 52.13985391944827 37.85092150889329 H 0.0 **** 0.06
23460 H 24.865991914554982 50.447438527775425 37.30275662326386 H 0.0 **** 0.06
23461 C 105.64504331237914 66.08983976266977 31.21496365521466 C 0.0 **** -0.24
23462 H 106.27607709191102 65.61743589105912 30.460728333576014 H 0.0 **** 0.06
23463 H 106.21930869354334 66.85221089532621 31.74199726300685 H 0.0 **** 0.06
23464 H 105.30303690363576 65.33669927671235 31.92407848027824 H 0.0 **** 0.06
23465 H 104.78524854533556 66.55163504010883 30.731357557102058 H 0.0 **** 0.06
23466 C 0.7754424196949827 98.00151541251927 43.25850394932871 C 0.0 **** -0.24
23467 H 0.6177317683317938 97.19782982261432 42.539075913242186 H 0.0 **** 0.06
23468 H 1.4172088110197905 98.76346854548936 42.816098944558576 H 0.0 **** 0.06
23469 H 1.2514439078844362 97.59945565299267 44.15302527997147 H 0.0 **** 0.06
23470 H -0.18453419887555356 98.44363421559714 43.52472323657963 H 0.0 **** 0.06
23471 C 3.7526852918243208 96.96738093576407 3.205149917634202 C 0.0 **** -0.24
23472 H 2.9713325399211783 97.37865761366554 2.5659447536665994 H 0.0 **** 0.06
23473 H 3.3082493226988134 96.59382957177829 4.127923960721944 H 0.0 **** 0.06
23474 H 4.477236719729831 97.7469118166636 3.4408164220576936 H 0.0 **** 0.06
23475 H 4.253922584947276 96.15012474094873 2.6859145340907418 H 0.0 **** 0.06
23476 C 51.990681339895886 78.87545576673 70.56009311810027 C 0.0 **** -0.24
23477 H 51.90041491388391 77.83139074599666 70.85961450255263 H 0.0 **** 0.06
23478 H 52.44480185504621 78.9310855488755 69.57036194889167 H 0.0 **** 0.06
23479 H 52.61531721592757 79.40636514862229 71.27789815647606 H 0.0 **** 0.06
23480 H 51.00138425146694 79.33240330439077 70.53149079038633 H 0.0 **** 0.06
23481 C 14.985442772612078 8.429998394181467 48.50160480693319 C 0.0 **** -0.24
23482 H 14.930260037236636 7.742521498862274 49.34628776508305 H 0.0 **** 0.06
23483 H 15.687052673656368 8.04132992183861 47.762423970983946 H 0.0 **** 0.06
23484 H 15.326038589561204 9.405234712798517 48.84808486113985 H 0.0 **** 0.06
23485 H 13.998719311293424 8.527971528786026 48.049083057261385 H 0.0 **** 0.06
23486 C 26.75693659814243 89.22064521842542 23.01045324054324 C 0.0 **** -0.24
23487 H 26.89126881372698 90.01853341283562 22.280479186083717 H 0.0 **** 0.06
23488 H 27.099824583810744 88.27702232654812 22.584211984218438 H 0.0 **** 0.06
23489 H 25.701474218767032 89.13934643668071 23.270619623403405 H 0.0 **** 0.06
23490 H 27.335123304546528 89.44638319256556 23.905937643366293 H 0.0 **** 0.06
23491 C 6.355563110514879 50.81539586228274 17.27602489340603 C 0.0 **** -0.24
23492 H 5.441483509991542 51.03732438048604 17.826834374195485 H 0.0 **** 0.06
23493 H 6.100006330780275 50.424083263711225 16.29128073957412 H 0.0 **** 0.06
23494 H 6.937656124766818 50.07337478579521 17.823009658981846 H 0.0 **** 0.06
23495 H 6.9429803333777045 51.72687249644102 17.164381597942466 H 0.0 **** 0.06
23496 C 74.85023754847383 69.3707889741766 21.851063343527457 C 0.0 **** -0.24
23497 H 75.32275009952579 69.3966485060559 20.869326607293473 H 0.0 **** 0.06
23498 H 74.17155913418259 68.51915893270836 21.904885077875505 H 0.0 **** 0.06
23499 H 74.28974966580186 70.29228228255897 22.008188368545767 H 0.0 **** 0.06
23500 H 75.61621753584559 69.27484330516859 22.620273280225387 H 0.0 **** 0.06
23501 C 38.53497655366883 44.68295110334866 63.98127242738923 C 0.0 **** -0.24
23502 H 38.86398105361073 45.62730565419301 64.41466413649238 H 0.0 **** 0.06
23503 H 37.54427849411502 44.433739322174205 64.36221827169652 H 0.0 **** 0.06
23504 H 39.23769526583203 43.89486660823374 64.25108362614282 H 0.0 **** 0.06
23505 H 38.49381117638063 44.775963911913294 62.896136085350804 H 0.0 **** 0.06
23506 C 100.37556927078373 9.203631670141306 45.56477130264198 C 0.0 **** -0.24
23507 H 101.24361772328069 8.545919660700235 45.52558410295423 H 0.0 **** 0.06
23508 H 100.68580729571556 10.227655601890433 45.35422849739119 H 0.0 **** 0.06
23509 H 99.92796858543943 9.155936855968207 46.55823331404776 H 0.0 **** 0.06
23510 H 99.64426435692565 8.885154936327638 44.821811975167364 H 0.0 **** 0.06
23511 C 36.69004980720081 9.75137516939327 69.74968502168858 C 0.0 **** -0.24
23512 H 36.759918864677246 10.566614771273578 70.46996453649058 H 0.0 **** 0.06
23513 H 37.06944149595019 10.08566136783054 68.78374787157898 H 0.0 **** 0.06
23514 H 35.64884210926604 9.446745211903306 69.6453060607138 H 0.0 **** 0.06
23515 H 37.28295806122921 8.906411246558491 70.09998866199271 H 0.0 **** 0.06
23516 C 85.32860587885224 29.97973316400345 109.1148675786865 C 0.0 **** -0.24
23517 H 86.24701354090902 30.546104205637533 109.2729249376161 H 0.0 **** 0.06
23518 H 84.74481091405539 30.448327965226724 108.32241869827124 H 0.0 **** 0.06
23519 H 84.74670601266541 29.966748897569573 110.0369352885681 H 0.0 **** 0.06
23520 H 85.57729696612807 28.957874367699674 108.82819840913427 H 0.0 **** 0.06
23521 C 20.713173417020982 46.17794607135232 7.764046579415151 C 0.0 **** -0.24
23522 H 19.628803073067672 46.24934408997353 7.842990218526211 H 0.0 **** 0.06
23523 H 21.05199090564645 46.74069623999492 6.8940052941972 H 0.0 **** 0.06
23524 H 21.000767977276183 45.13253795162194 7.656013928352763 H 0.0 **** 0.06
23525 H 21.170342750476095 46.58967761436628 8.66425168919622 H 0.0 **** 0.06
23526 C 104.75371278235941 55.12857197084915 82.7391271436499 C 0.0 **** -0.24
23527 H 103.86037718914237 54.68527002951915 82.29811828073069 H 0.0 **** 0.06
23528 H 104.9416251735577 54.67381470721964 83.71206118978691 H 0.0 **** 0.06
23529 H 104.60416499791694 56.20143864231386 82.86176663921376 H 0.0 **** 0.06
23530 H 105.60713247954419 54.95299434109211 82.08454013136858 H 0.0 **** 0.06
23531 C 12.67530309976027 107.57878378837728 20.81724752971965 C 0.0 **** -0.24
23532 H 12.12905726206958 108.26118847067985 21.46835980346404 H 0.0 **** 0.06
23533 H 11.997560207652214 107.17392506967303 20.066158442018434 H 0.0 **** 0.06
23534 H 13.089662260283262 106.76450128452896 21.41133029550835 H 0.0 **** 0.06
23535 H 13.484211211386508 108.11774857765093 20.325266407437567 H 0.0 **** 0.06
23536 C 30.698513037312125 84.52322539615955 101.76914554586665 C 0.0 **** -0.24
23537 H 31.145721892695178 84.87584265523192 100.83873796568261 H 0.0 **** 0.06
23538 H 30.802871016068593 85.29181917020503 102.53471518171989 H 0.0 **** 0.06
23539 H 31.20543959786903 83.61479832968428 102.09257641479871 H 0.0 **** 0.06
23540 H 29.641633551967857 84.31198848071743 101.60655225007528 H 0.0 **** 0.06
23541 C 92.0871558374717 61.820057065592295 84.54480424147418 C 0.0 **** -0.24
23542 H 91.1986256940695 61.204577298633595 84.40378400076472 H 0.0 **** 0.06
23543 H 92.63562488180048 61.88726140892925 83.60408416870744 H 0.0 **** 0.06
23544 H 92.7248074853149 61.36898801520901 85.30540990472494 H 0.0 **** 0.06
23545 H 91.79057013819431 62.8190354636491 84.86501349179117 H 0.0 **** 0.06
23546 C 73.08634677272205 44.810698185665444 86.6937774864947 C 0.0 **** -0.24
23547 H 72.34352313069787 44.33166192610747 87.33069357505076 H 0.0 **** 0.06
23548 H 72.59144369118069 45.51775164500128 86.02685748767522 H 0.0 **** 0.06
23549 H 73.60031159518522 44.05211331970651 86.10244840373048 H 0.0 **** 0.06
23550 H 73.80942787212213 45.340563059269925 87.31408935723323 H 0.0 **** 0.06
23551 C 27.256710248071613 73.85851708772663 46.75388380770627 C 0.0 **** -0.24
23552 H 26.471799721957893 73.85586856830083 45.997565544679844 H 0.0 **** 0.06
23553 H 27.777235233481633 74.81562044778025 46.73361742040274 H 0.0 **** 0.06
23554 H 27.96301087321558 73.05434533035647 46.54636489197617 H 0.0 **** 0.06
23555 H 26.812533098160202 73.70602851598272 47.73812657077332 H 0.0 **** 0.06
23556 C 4.257683868272991 30.311665457402228 92.5410595105181 C 0.0 **** -0.24
23557 H 3.7768858692593312 31.216158920784665 92.91484121959583 H 0.0 **** 0.06
23558 H 4.84076076220731 29.853915485278122 93.34127651185733 H 0.0 **** 0.06
23559 H 4.91517743130548 30.567092790928996 91.71054706929546 H 0.0 **** 0.06
23560 H 3.4951437491948667 29.610363689431807 92.19971460450056 H 0.0 **** 0.06
23561 C 16.524989509693526 102.85966403315626 64.14148168204642 C 0.0 **** -0.24
23562 H 16.517350421085524 102.57760826810443 63.08851678934404 H 0.0 **** 0.06
23563 H 17.479211306576317 103.32854589164171 64.38448064218993 H 0.0 **** 0.06
23564 H 16.39062965545878 101.96936074853315 64.75624780051696 H 0.0 **** 0.06
23565 H 15.715208946370637 103.56182044619925 64.33614190600193 H 0.0 **** 0.06
23566 C 103.05645476024574 37.91254233374366 66.88234143899933 C 0.0 **** -0.24
23567 H 103.09191609661212 37.662976320777034 67.94259524877185 H 0.0 **** 0.06
23568 H 102.45925685256401 38.814452081204024 66.74165235665731 H 0.0 **** 0.06
23569 H 102.60621178030237 37.08866351965037 66.3293949863126 H 0.0 **** 0.06
23570 H 104.06828541757795 38.08607053219151 66.51579736695447 H 0.0 **** 0.06
23571 C 80.67240394671217 90.79761799967635 41.75034120278565 C 0.0 **** -0.24
23572 H 79.78626832423441 90.16236757129855 41.76202261758567 H 0.0 **** 0.06
23573 H 80.43150379604964 91.76267732903945 42.1976850752595 H 0.0 **** 0.06
23574 H 80.99939430587955 90.94588825874817 40.72177859581697 H 0.0 **** 0.06
23575 H 81.46889689195893 90.32071160830002 42.31980590553695 H 0.0 **** 0.06
23576 C 5.125257158176822 60.38264858996513 72.17633846291614 C 0.0 **** -0.24
23577 H 5.675893257179808 60.930032437621904 71.41085579992816 H 0.0 **** 0.06
23578 H 4.897354644461785 59.37970552840271 71.81278019070845 H 0.0 **** 0.06
23579 H 4.197291513427075 60.90771079176639 72.40140795938578 H 0.0 **** 0.06
23580 H 5.7317432199434535 60.312218535141085 73.07955612861986 H 0.0 **** 0.06
23581 C 31.134333715682544 29.113262674352825 1.549197402648872 C 0.0 **** -0.24
23582 H 31.942632208400738 29.47182988831935 0.9115297897101868 H 0.0 **** 0.06
23583 H 30.435374746791865 28.524823886400952 0.9541637448247116 H 0.0 **** 0.06
23584 H 30.613318800157742 29.96420432491294 1.9880762378198824 H 0.0 **** 0.06
23585 H 31.54812311256748 28.491474693239752 2.3431457067131873 H 0.0 **** 0.06
23586 C 27.313958991047706 27.7964816273485 12.156149777630517 C 0.0 **** -0.24
23587 H 27.015151993787974 28.291612912345272 13.080391780652775 H 0.0 **** 0.06
23588 H 27.76839237325334 28.52531991154882 11.484578522521417 H 0.0 **** 0.06
23589 H 26.43760985380393 27.35915571552289 11.678838507528639 H 0.0 **** 0.06
23590 H 28.03426957338238 27.010558920091796 12.381347432119256 H 0.0 **** 0.06
23591 C 40.767990560220284 17.870075730848754 106.25498938690114 C 0.0 **** -0.24
23592 H 40.356846308251534 18.662945934322806 106.87986946386854 H 0.0 **** 0.06
23593 H 40.55184827913885 16.90212636687839 106.7084587515609 H 0.0 **** 0.06
23594 H 41.84677107360176 17.99834303597234 106.16821987500319 H 0.0 **** 0.06
23595 H 40.31462132800465 17.91704853757095 105.26461683978127 H 0.0 **** 0.06
23596 C 93.87571282103745 19.927794977885412 81.01166062827946 C 0.0 **** -0.24
23597 H 93.81944446928489 18.84309090802134 80.91118225712233 H 0.0 **** 0.06
23598 H 92.87695138760654 20.353290193783977 80.91316041451921 H 0.0 **** 0.06
23599 H 94.52143005848443 20.331099929539846 80.23120034142767 H 0.0 **** 0.06
23600 H 94.28591662508465 20.18097706766241 81.98869157721617 H 0.0 **** 0.06
23601 C 10.872639533748185 42.032262653617266 71.31517412038639 C 0.0 **** -0.24
23602 H 11.07140160317411 41.44594556836097 70.418151395048 H 0.0 **** 0.06
23603 H 9.972177742960724 42.629154753090205 71.16739966324633 H 0.0 **** 0.06
23604 H 11.71770771866099 42.69305280488794 71.51150308647156 H 0.0 **** 0.06
23605 H 10.730301846164423 41.36261053381372 72.16369867127986 H 0.0 **** 0.06
23606 C 102.23980529890173 35.86374424516268 54.44068947432984 C 0.0 **** -0.24
23607 H 101.61170532560385 34.992080142011986 54.256358285330315 H 0.0 **** 0.06
23608 H 103.05868646901422 35.585970353328264 55.10548661311305 H 0.0 **** 0.06
23609 H 101.64364305473578 36.648738831542744 54.90698872245247 H 0.0 **** 0.06
23610 H 102.64385570063564 36.226533306948 53.496043937896395 H 0.0 **** 0.06
23611 C 103.45159446880768 58.26914203660993 60.260554175167556 C 0.0 **** -0.24
23612 H 104.08315599068914 58.69866069527576 61.037523013969746 H 0.0 **** 0.06
23613 H 102.78081124831044 59.03586358666255 59.871986506004305 H 0.0 **** 0.06
23614 H 102.86374885012222 57.45201395537529 60.68036741961566 H 0.0 **** 0.06
23615 H 104.07732204680623 57.88965284154412 59.45259079440882 H 0.0 **** 0.06
23616 C 85.60377823063189 91.07308161066385 39.4994231614371 C 0.0 **** -0.24
23617 H 86.61626905138823 90.74833642291256 39.26240692060533 H 0.0 **** 0.06
23618 H 85.34106432304179 90.74086425423258 40.50344799279743 H 0.0 **** 0.06
23619 H 84.90638750455474 90.6439118325626 38.780184447718284 H 0.0 **** 0.06
23620 H 85.55168659358756 92.16111228805323 39.45050884769336 H 0.0 **** 0.06
23621 C 79.9412567982063 25.836478302157218 103.70865230100748 C 0.0 **** -0.24
23622 H 80.46615709801766 26.791288965334616 103.65688142753413 H 0.0 **** 0.06
23623 H 79.33115268466784 25.709949115618855 102.81408189110763 H 0.0 **** 0.06
23624 H 79.30207776875051 25.821043231544394 104.59068842526722 H 0.0 **** 0.06
23625 H 80.66827695994122 25.02674802147375 103.77064761083432 H 0.0 **** 0.06
23626 C 30.91014741815647 0.40176896293161235 13.054261491010777 C 0.0 **** -0.24
23627 H 31.367025796586404 -0.5047691562365912 12.655759657765714 H 0.0 **** 0.06
23628 H 30.65570301513128 0.2496710755958702 14.102796231517345 H 0.0 **** 0.06
23629 H 30.005686459109086 0.6306112024707886 12.490288543798329 H 0.0 **** 0.06
23630 H 31.61227852709257 1.2308606232417105 12.96608104707775 H 0.0 **** 0.06
23631 C 18.127487400558493 39.785172875209526 74.20315482973695 C 0.0 **** -0.24
23632 H 18.58459407452419 40.214362441064495 75.09483732687983 H 0.0 **** 0.06
23633 H 18.40868773496844 40.37638113300987 73.3306205203468 H 0.0 **** 0.06
23634 H 17.043451753495418 39.78951555180912 74.3122266784597 H 0.0 **** 0.06
23635 H 18.47619767077778 38.76053605675974 74.07461924705234 H 0.0 **** 0.06
23636 C 10.33190076609433 91.4633629890269 78.90500933461146 C 0.0 **** -0.24
23637 H 11.373580218330304 91.49896998360867 79.22344285558529 H 0.0 **** 0.06
23638 H 9.783976528814879 92.28516825181305 79.36606899071012 H 0.0 **** 0.06
23639 H 9.891209698422346 90.51475702958498 79.21247153442107 H 0.0 **** 0.06
23640 H 10.279879213252622 91.55426148036548 77.82025080654705 H 0.0 **** 0.06
23641 C 10.973260616386455 69.87810147747818 27.411083233930867 C 0.0 **** -0.24
23642 H 11.92117683639458 69.46584022228072 27.75693198888385 H 0.0 **** 0.06
23643 H 10.27305147493442 69.92921975268311 28.244213409510877 H 0.0 **** 0.06
23644 H 10.562810436392567 69.2384066945831 26.629846974421525 H 0.0 **** 0.06
23645 H 11.136777768952925 70.87865320566154 27.011034196441386 H 0.0 **** 0.06
23646 C 97.28289926658715 48.71554169282456 51.32069592548339 C 0.0 **** -0.24
23647 H 98.06097361372963 49.25053943046538 51.864989580819724 H 0.0 **** 0.06
23648 H 96.72158429841411 49.419445605278895 50.70522154391762 H 0.0 **** 0.06
23649 H 96.60954929231792 48.234185587167644 52.028773530365015 H 0.0 **** 0.06
23650 H 97.74086139001054 47.959372905391206 50.68230782316107 H 0.0 **** 0.06
23651 C 28.74939085732393 80.65210569248637 62.02538547623652 C 0.0 **** -0.24
23652 H 27.934622008934014 81.29486256586466 62.35805372911216 H 0.0 **** 0.06
23653 H 29.69759250741015 81.05405966776105 62.38510702479681 H 0.0 **** 0.06
23654 H 28.760726264515625 80.61371247444707 60.93641655994696 H 0.0 **** 0.06
23655 H 28.605374214921483 79.64827614581213 62.423080378927466 H 0.0 **** 0.06
23656 C 74.089721963817 22.229341263217634 43.209527126361365 C 0.0 **** -0.24
23657 H 74.33190755970685 21.933688726246345 42.1884998982392 H 0.0 **** 0.06
23658 H 73.74651385922385 23.263878421362165 43.215265433029884 H 0.0 **** 0.06
23659 H 74.97698864235105 22.135334980357754 43.83469067627152 H 0.0 **** 0.06
23660 H 73.30220876224962 21.58230075206052 43.59637905791979 H 0.0 **** 0.06
23661 C 85.9051925948958 86.68579312148051 58.00115699918593 C 0.0 **** -0.24
23662 H 85.87167034154317 85.88018388802146 58.73346485843327 H 0.0 **** 0.06
23663 H 85.9174390407855 87.64596045583676 58.5179718894172 H 0.0 **** 0.06
23664 H 85.0268372346195 86.62950759592326 57.35840381994827 H 0.0 **** 0.06
23665 H 86.80605421118224 86.5876572447873 57.39410375581717 H 0.0 **** 0.06
23666 C 105.57692582419486 42.39807969930922 107.27601076710474 C 0.0 **** -0.24
23667 H 105.88332423052614 41.715121529421594 108.06723066753025 H 0.0 **** 0.06
23668 H 104.88862390187347 41.88821286554935 106.60106469738702 H 0.0 **** 0.06
23669 H 106.4543515965012 42.72687442838031 106.7191814391193 H 0.0 **** 0.06
23670 H 105.08054350077037 43.263784316020605 107.71535915597045 H 0.0 **** 0.06
23671 C 80.80398706507151 60.478312507581236 91.84409444083752 C 0.0 **** -0.24
23672 H 80.54920477357041 60.26542589838411 90.80517663256762 H 0.0 **** 0.06
23673 H 81.88769232779254 60.53685440600918 91.94759630325308 H 0.0 **** 0.06
23674 H 80.4195025642884 59.68196738743171 92.48195494214491 H 0.0 **** 0.06
23675 H 80.35834494544088 61.4279699760489 92.13978286806594 H 0.0 **** 0.06
23676 C 96.42725515048073 10.450154586133124 52.9419847068143 C 0.0 **** -0.24
23677 H 96.9992269312819 11.345527139527519 52.69992458422786 H 0.0 **** 0.06
23678 H 95.5998758578504 10.34724787591199 52.239581262218906 H 0.0 **** 0.06
23679 H 96.03526579170335 10.532173572730017 53.95589945017532 H 0.0 **** 0.06
23680 H 97.07510139085196 9.575909535111464 52.87167293635644 H 0.0 **** 0.06
23681 C 79.6403583947299 5.403789515240192 105.5876562436802 C 0.0 **** -0.24
23682 H 79.09884195141376 4.524718267331025 105.23665396325285 H 0.0 **** 0.06
23683 H 80.41832064990638 5.661045308598318 104.86886903763632 H 0.0 **** 0.06
23684 H 80.09438956335339 5.187480669377237 106.55465885006383 H 0.0 **** 0.06
23685 H 78.9477771806711 6.239637854012301 105.68981646984955 H 0.0 **** 0.06
23686 C 23.31264611155956 4.893917137280589 67.22631438395615 C 0.0 **** -0.24
23687 H 22.559678096393498 4.109473543542665 67.30430985976614 H 0.0 **** 0.06
23688 H 23.754377753399837 5.07092773608076 68.20678225783399 H 0.0 **** 0.06
23689 H 22.844917423699656 5.810577669166223 66.86647521447134 H 0.0 **** 0.06
23690 H 24.088920296821925 4.583419947451201 66.5273059977616 H 0.0 **** 0.06
23691 C 46.89337482339633 103.21837432409839 58.7751182379248 C 0.0 **** -0.24
23692 H 47.90315588416888 103.15010984666318 58.36972205938946 H 0.0 **** 0.06
23693 H 46.327789060540766 102.33104182134878 58.49240001806652 H 0.0 **** 0.06
23694 H 46.40197516131286 104.10599091317056 58.376485533177856 H 0.0 **** 0.06
23695 H 46.9421158152885 103.28797376410097 59.86173228597954 H 0.0 **** 0.06
23696 C 75.8641850505316 1.669732392195499 76.6848743726272 C 0.0 **** -0.24
23697 H 76.08664633746162 0.6664785351553633 77.0504883981848 H 0.0 **** 0.06
23698 H 76.74248564970696 2.3029771741965988 76.80733633598851 H 0.0 **** 0.06
23699 H 75.03270956693643 2.0862671110650695 77.25339632459573 H 0.0 **** 0.06
23700 H 75.59420665381907 1.620613550099904 75.62994884384396 H 0.0 **** 0.06
23701 C 11.602482926327877 64.80993591978341 29.188219127359403 C 0.0 **** -0.24
23702 H 11.816878382316848 63.745923780961746 29.089236252879978 H 0.0 **** 0.06
23703 H 10.856693980935146 64.95895730977675 29.96979151372414 H 0.0 **** 0.06
23704 H 11.218477438212961 65.19226820313624 28.24204910466092 H 0.0 **** 0.06
23705 H 12.51656791004945 65.34210404364025 29.451981529598342 H 0.0 **** 0.06
23706 C 55.940598065545956 1.3061973833022122 52.96918540124037 C 0.0 **** -0.24
23707 H 56.53056268838255 1.8912690649170925 52.26308216768379 H 0.0 **** 0.06
23708 H 54.969846754727044 1.077869541613631 52.52809901574079 H 0.0 **** 0.06
23709 H 55.798802199300475 1.8783694426929243 53.88507941432968 H 0.0 **** 0.06
23710 H 56.464139818069754 0.37737151978026073 53.19715348158854 H 0.0 **** 0.06
23711 C 61.44214788151908 76.94869053759422 72.51363004383188 C 0.0 **** -0.24
23712 H 62.253803963143866 76.93865363540542 71.78533505660977 H 0.0 **** 0.06
23713 H 61.40117764735294 75.98734861325295 73.02503103360411 H 0.0 **** 0.06
23714 H 60.496839352626125 77.12703855418172 71.99952527469651 H 0.0 **** 0.06
23715 H 61.6152797212697 77.7416030553461 73.24053438256757 H 0.0 **** 0.06
23716 C 91.68635116198345 106.60531414044159 95.52373986687009 C 0.0 **** -0.24
23717 H 92.39252450284374 106.230796419353 94.78285759544517 H 0.0 **** 0.06
23718 H 91.7372072937508 107.69396074843317 95.55606808690008 H 0.0 **** 0.06
23719 H 91.93934029666727 106.20031839682363 96.50392242253187 H 0.0 **** 0.06
23720 H 90.67725274152914 106.29602809600084 95.25247181638841 H 0.0 **** 0.06
23721 C 19.079814761643803 99.4073576520301 15.621177554424818 C 0.0 **** -0.24
23722 H 18.287902004750038 99.50158036488477 14.878210445936674 H 0.0 **** 0.06
23723 H 19.883011105644897 100.10710834492 15.385929676816858 H 0.0 **** 0.06
23724 H 19.468999252297294 98.38971280004478 15.610259435160685 H 0.0 **** 0.06
23725 H 18.67938395355202 99.6334249993318 16.609802165581307 H 0.0 **** 0.06
23726 C 34.85282470754444 4.142260113299159 98.2435748411342 C 0.0 **** -0.24
23727 H 34.73887679386334 3.3251827621574535 97.53123479954479 H 0.0 **** 0.06
23728 H 35.56815614321988 4.866347268825962 97.85488532359136 H 0.0 **** 0.06
23729 H 35.214552734887064 3.74753949845487 99.1928078544588 H 0.0 **** 0.06
23730 H 33.889179366606584 4.627800825994939 98.39529399213234 H 0.0 **** 0.06
23731 C 65.52635864024603 3.3682001786265126 26.651498781500692 C 0.0 **** -0.24
23732 H 66.17296253521499 3.1431359505449947 25.803159594735746 H 0.0 **** 0.06
23733 H 66.0946947166731 3.9101009580451187 27.408148347851096 H 0.0 **** 0.06
23734 H 65.14800143865195 2.4384724462843295 27.077100783260533 H 0.0 **** 0.06
23735 H 64.68931745306344 3.9819775942989537 26.317519383995858 H 0.0 **** 0.06
23736 C 86.67372693084349 16.42071701593079 86.39132229954043 C 0.0 **** -0.24
23737 H 85.64033824904823 16.763100537370235 86.44989910451831 H 0.0 **** 0.06
23738 H 86.70023984738569 15.333524934795662 86.47472124272457 H 0.0 **** 0.06
23739 H 87.24897745114012 16.861711876993212 87.2045689830407 H 0.0 **** 0.06
23740 H 87.10263514275954 16.72327140983657 85.43627967048987 H 0.0 **** 0.06
23741 C 4.574732531384598 53.767276059862354 14.818558756506178 C 0.0 **** -0.24
23742 H 5.155400683113783 52.854186150345754 14.687932681142627 H 0.0 **** 0.06
23743 H 4.395990061298789 53.93546655297777 15.881275569740865 H 0.0 **** 0.06
23744 H 3.620506815996748 53.66791167413578 14.301110334188166 H 0.0 **** 0.06
23745 H 5.126794701679557 54.61120659755642 14.404828803459509 H 0.0 **** 0.06
23746 C 18.513561594077032 103.3132038349659 2.505861487928615 C 0.0 **** -0.24
23747 H 18.27085963280433 103.4527015360532 1.452541973250601 H 0.0 **** 0.06
23748 H 19.457142227140423 102.77260710484542 2.5924104659321587 H 0.0 **** 0.06
23749 H 17.72153293310606 102.7419499364731 2.989428873140101 H 0.0 **** 0.06
23750 H 18.606873593377486 104.2864854163607 2.9883837491581664 H 0.0 **** 0.06
23751 C 94.9971442974838 85.37344194227971 98.58455247411958 C 0.0 **** -0.24
23752 H 95.97120443815449 84.88443243956867 98.61720911068109 H 0.0 **** 0.06
23753 H 94.55751004519561 85.24268888975676 97.59587344894011 H 0.0 **** 0.06
23754 H 95.11847472930476 86.4367592219719 98.79193898717669 H 0.0 **** 0.06
23755 H 94.34294618279654 84.92947273962777 99.33571830013715 H 0.0 **** 0.06
23756 C 103.4026575185215 107.4128899194253 67.0261896829305 C 0.0 **** -0.24
23757 H 103.3785342974154 107.12202597958088 68.07687477019026 H 0.0 **** 0.06
23758 H 104.18378376521946 108.15814347016017 66.873970018129 H 0.0 **** 0.06
23759 H 102.43778990732528 107.8342637855898 66.74422617915337 H 0.0 **** 0.06
23760 H 103.61042463904528 106.53657404255007 66.41160754371147 H 0.0 **** 0.06
23761 C 5.9674895904566085 66.63456637281979 100.33053663326173 C 0.0 **** -0.24
23762 H 6.970548546154902 66.21136937609197 100.2904513038904 H 0.0 **** 0.06
23763 H 5.323653046491046 65.98601761501834 100.92475535006335 H 0.0 **** 0.06
23764 H 5.5670188777402245 66.7176175442359 99.31966541215373 H 0.0 **** 0.06
23765 H 6.008737891440205 67.62326095593318 100.78727446693948 H 0.0 **** 0.06
23766 C 92.273074117886 26.328786064326266 92.38905302975371 C 0.0 **** -0.24
23767 H 91.77234516742998 26.18900965843386 91.43137359283787 H 0.0 **** 0.06
23768 H 93.351202635047 26.23149059088226 92.25258152699563 H 0.0 **** 0.06
23769 H 91.92606729729498 25.573344349432034 93.09462725457345 H 0.0 **** 0.06
23770 H 92.0444758580491 27.32178535188899 92.7768921002674 H 0.0 **** 0.06
23771 C 26.256371427525778 90.99060088770426 42.37400494306215 C 0.0 **** -0.24
23772 H 26.007710187381804 90.26302318477745 41.60074031269113 H 0.0 **** 0.06
23773 H 25.56421997902919 90.88454397751173 43.20914274686564 H 0.0 **** 0.06
23774 H 26.177067944009224 91.99697124528662 41.9626200449581 H 0.0 **** 0.06
23775 H 27.274820756071534 90.81808141060665 42.720173681875025 H 0.0 **** 0.06
23776 C 44.579383803104406 48.4100420740038 84.59631245070221 C 0.0 **** -0.24
23777 H 45.65724284627328 48.2593772707242 84.53614715079789 H 0.0 **** 0.06
23778 H 44.14889321287205 48.35632691068798 83.59617475261825 H 0.0 **** 0.06
23779 H 44.37348908474911 49.388942354878566 85.0295404269524 H 0.0 **** 0.06
23780 H 44.138681118385136 47.63514016964672 85.22450995638906 H 0.0 **** 0.06
23781 C 106.26273669841629 48.754100527459855 13.933959216480659 C 0.0 **** -0.24
23782 H 107.1986076616466 49.07941908986402 14.389820275911745 H 0.0 **** 0.06
23783 H 106.2839276278346 47.673502355269875 13.793320000391248 H 0.0 **** 0.06
23784 H 106.14099726311338 49.244389704320156 12.967786910146188 H 0.0 **** 0.06
23785 H 105.43048411678326 49.02034602926665 14.584944467727524 H 0.0 **** 0.06
23786 C 31.529311800510612 63.30795901483195 39.754232961901266 C 0.0 **** -0.24
23787 H 31.413731761239433 62.34086301302354 40.24317203882333 H 0.0 **** 0.06
23788 H 31.93773087631095 63.161284442403996 38.75366894180371 H 0.0 **** 0.06
23789 H 32.208202116269405 63.929348446968376 40.33718057002477 H 0.0 **** 0.06
23790 H 30.558487385540133 63.79737958892147 39.68355575878101 H 0.0 **** 0.06
23791 C 25.824657080074445 22.39990248158324 3.7894196259839106 C 0.0 **** -0.24
23792 H 25.58646434725192 21.519205530325564 3.191933201571061 H 0.0 **** 0.06
23793 H 26.815828635164653 22.76411955000316 3.520004116313004 H 0.0 **** 0.06
23794 H 25.808789367159388 22.134980644254284 4.847105567212921 H 0.0 **** 0.06
23795 H 25.086131619359662 23.17748653919267 3.59928823289998 H 0.0 **** 0.06
23796 C 0.10526489757381796 42.895133121254446 24.653600125609955 C 0.0 **** -0.24
23797 H -0.42823405332583775 42.08119881700003 24.161200132026863 H 0.0 **** 0.06
23798 H 1.157994775192492 42.861689335094376 24.37094443707133 H 0.0 **** 0.06
23799 H 0.014289158089354714 42.78716847795899 25.733951857190903 H 0.0 **** 0.06
23800 H -0.32427268644353546 43.84792525276719 24.345885278810783 H 0.0 **** 0.06
23801 C 100.80217870526104 71.96116156509589 70.37121486221702 C 0.0 **** -0.24
23802 H 101.76821940991437 71.74748068561422 70.82672843723348 H 0.0 **** 0.06
23803 H 100.71013459025642 73.03450272381033 70.20202398311075 H 0.0 **** 0.06
23804 H 100.00460736323873 71.6280300917694 71.03553952314545 H 0.0 **** 0.06
23805 H 100.72440599430811 71.43536919375111 69.41976615941098 H 0.0 **** 0.06
23806 C 10.755367277621872 4.51759252089812 62.300038645057384 C 0.0 **** -0.24
23807 H 11.824845962176298 4.502865541855726 62.51117449316399 H 0.0 **** 0.06
23808 H 10.199747253614873 4.480020160901461 63.23812588546525 H 0.0 **** 0.06
23809 H 10.49402710099099 3.6543197335331 61.688511670717475 H 0.0 **** 0.06
23810 H 10.503074233402259 5.432725016964298 61.7645233907686 H 0.0 **** 0.06
23811 C 90.6448593367356 67.75942187548549 98.27567232211499 C 0.0 **** -0.24
23812 H 91.43492523049943 67.08722107318818 98.6089541552393 H 0.0 **** 0.06
23813 H 90.3206178863184 67.47067663025706 97.27583306873385 H 0.0 **** 0.06
23814 H 91.02171034485023 68.78190849398396 98.2551958304901 H 0.0 **** 0.06
23815 H 89.80137178630584 67.69762777993037 98.9632318480165 H 0.0 **** 0.06
23816 C 94.67878321920188 44.524544009151164 19.52026252818058 C 0.0 **** -0.24
23817 H 94.23573157042307 44.767358804551044 18.554706187127493 H 0.0 **** 0.06
23818 H 94.64183162069648 43.44658805227411 19.67648794482423 H 0.0 **** 0.06
23819 H 94.12059463170979 45.02607189628046 20.31118614675526 H 0.0 **** 0.06
23820 H 95.7158995767287 44.8600266753465 19.53926057129945 H 0.0 **** 0.06
23821 C 22.379738864629246 16.078987629585413 106.42084627623387 C 0.0 **** -0.24
23822 H 21.865679451121565 16.450132085911576 105.53420284327717 H 0.0 **** 0.06
23823 H 23.071758268958604 16.838399657469182 106.7835366837075 H 0.0 **** 0.06
23824 H 22.93324662497065 15.174023109480572 106.16661344544957 H 0.0 **** 0.06
23825 H 21.64858061587384 15.851071107545607 107.1956407491615 H 0.0 **** 0.06
23826 C 39.070719739510025 87.38285901683832 8.194685376947435 C 0.0 **** -0.24
23827 H 38.94278115432493 86.32060565027535 7.983454627005186 H 0.0 **** 0.06
23828 H 40.13212285402349 87.63208341795365 8.172267890583536 H 0.0 **** 0.06
23829 H 38.6651283517636 87.60894141359199 9.180117855431558 H 0.0 **** 0.06
23830 H 38.5443638685216 87.9684278709974 7.44049275604643 H 0.0 **** 0.06
23831 C 43.2225644920039 3.909483144590082 92.97522178696254 C 0.0 **** -0.24
23832 H 43.980336183573826 3.8042242158651494 93.7523476070007 H 0.0 **** 0.06
23833 H 42.831417007584605 2.9256078999774617 92.71491034883975 H 0.0 **** 0.06
23834 H 43.66830941682187 4.369162889007651 92.09391265368046 H 0.0 **** 0.06
23835 H 42.41168419105574 4.538343570480977 93.34309754945653 H 0.0 **** 0.06
23836 C 12.395569709681709 74.81111194481159 52.55562965614638 C 0.0 **** -0.24
23837 H 12.253537828817148 74.02020223916237 53.292740700901504 H 0.0 **** 0.06
23838 H 13.399766798906786 75.22415261873292 52.657593060534 H 0.0 **** 0.06
23839 H 11.660110836670096 75.59750357834177 52.72084840250716 H 0.0 **** 0.06
23840 H 12.2709091288223 74.39998243855415 51.554656103357246 H 0.0 **** 0.06
23841 C 0.026264525568322483 107.90009852193569 90.95768419419943 C 0.0 **** -0.24
23842 H -0.22492692009294046 106.88957722259784 90.63697813717272 H 0.0 **** 0.06
23843 H 0.9731809761653238 107.88613242746064 91.49783424017181 H 0.0 **** 0.06
23844 H -0.7589684298644102 108.2790064656636 91.61174369603981 H 0.0 **** 0.06
23845 H 0.1159018533994356 108.5470082293053 90.08528244099631 H 0.0 **** 0.06
23846 C 29.40770428913885 91.23554942540196 67.26861706720193 C 0.0 **** -0.24
23847 H 28.709483751498723 91.0319497793485 68.08082649545698 H 0.0 **** 0.06
23848 H 30.41838722089038 91.30800311715005 67.66890981124588 H 0.0 **** 0.06
23849 H 29.138464174165904 92.17478409559708 66.78615688822114 H 0.0 **** 0.06
23850 H 29.360950945280393 90.42658471686853 66.53944966663622 H 0.0 **** 0.06
23851 C 2.909724376150848 31.503878685779085 107.63776227848524 C 0.0 **** -0.24
23852 H 3.156054459932477 30.91560635632493 108.52193762290929 H 0.0 **** 0.06
23853 H 1.9504881189841399 31.998660186742256 107.78689606760364 H 0.0 **** 0.06
23854 H 2.8494480477936577 30.846910755781494 106.76999573483866 H 0.0 **** 0.06
23855 H 3.6843735175128813 32.25324862607363 107.47303433044533 H 0.0 **** 0.06
23856 C 64.56077743831082 77.65242980195109 35.23071649676376 C 0.0 **** -0.24
23857 H 65.3198979433945 76.98732071425559 34.81885993028067 H 0.0 **** 0.06
23858 H 64.9600017255396 78.1575098866465 36.109611190317594 H 0.0 **** 0.06
23859 H 63.68272824417488 77.07104459447959 35.51160563043163 H 0.0 **** 0.06
23860 H 64.28226361460108 78.39271442061005 34.479865206922966 H 0.0 **** 0.06
23861 C 18.35694252770979 105.8885231868881 74.99628814762983 C 0.0 **** -0.24
23862 H 19.12266296001596 105.99853972835642 74.2278556626446 H 0.0 **** 0.06
23863 H 17.778646473180515 104.98404895380789 74.80546640229721 H 0.0 **** 0.06
23864 H 17.695630753071285 106.75461845858845 74.97534608452824 H 0.0 **** 0.06
23865 H 18.832236265622015 105.81754994904053 75.97459204798369 H 0.0 **** 0.06
23866 C 56.85545001822226 49.27127368873374 80.62687861118081 C 0.0 **** -0.24
23867 H 56.780377189604415 48.61555585533142 81.4936265531035 H 0.0 **** 0.06
23868 H 56.16255894695451 50.105593580108916 80.74163577955682 H 0.0 **** 0.06
23869 H 56.60472817045442 48.71186210732665 79.72511913987256 H 0.0 **** 0.06
23870 H 57.8730265529929 49.65165706940431 80.54636606397023 H 0.0 **** 0.06
23871 C 31.54372597240267 31.581160719490015 85.87604633997867 C 0.0 **** -0.24
23872 H 31.688260129352003 31.16102713079789 86.87061430267511 H 0.0 **** 0.06
23873 H 31.50969823755596 30.775953271200933 85.14227530375234 H 0.0 **** 0.06
23874 H 32.36963425695354 32.251678463600456 85.64175112050657 H 0.0 **** 0.06
23875 H 30.60592444840116 32.136814782281476 85.85016649118074 H 0.0 **** 0.06
23876 C 18.94650289919997 108.55582277437458 86.20322899091535 C 0.0 **** -0.24
23877 H 19.3007513200522 109.50074491984878 86.61478462637187 H 0.0 **** 0.06
23878 H 19.086778120913095 108.55543285971822 85.12144219837931 H 0.0 **** 0.06
23879 H 17.888925500409584 108.43370174061704 86.43328392597255 H 0.0 **** 0.06
23880 H 19.512357941620678 107.7330650971005 86.64322315941877 H 0.0 **** 0.06
23881 C 17.89326197771362 78.08924396873608 65.10809369506256 C 0.0 **** -0.24
23882 H 16.925874213968314 77.66056611806319 64.8485055152425 H 0.0 **** 0.06
23883 H 17.753068966029616 78.88722488345206 65.8366163072684 H 0.0 **** 0.06
23884 H 18.362858471830066 78.49408128209429 64.2115231439023 H 0.0 **** 0.06
23885 H 18.53093638184714 77.31522204440924 65.53351843581993 H 0.0 **** 0.06
23886 C 55.61741804492243 100.9029054696733 6.316835830373805 C 0.0 **** -0.24
23887 H 56.6391109179861 100.52366406478717 6.2953068886349115 H 0.0 **** 0.06
23888 H 55.120223004496495 100.66214406909552 5.3761812725754226 H 0.0 **** 0.06
23889 H 55.633863370200515 101.98404010848276 6.453149027180189 H 0.0 **** 0.06
23890 H 55.0759229332632 100.440600928263 7.14214026920547 H 0.0 **** 0.06
23891 C 10.573937404260391 45.14921277674069 15.309275581737694 C 0.0 **** -0.24
23892 H 10.669435696668643 44.085373989413526 15.093562949999708 H 0.0 **** 0.06
23893 H 9.563931788586899 45.35820576817465 15.663983241235655 H 0.0 **** 0.06
23894 H 10.76618513171941 45.72226124623709 14.40188197575955 H 0.0 **** 0.06
23895 H 11.294664344496596 45.430259508933666 16.077377977775285 H 0.0 **** 0.06
23896 C 31.973324304406475 87.41989468500972 12.695135805027881 C 0.0 **** -0.24
23897 H 31.565959612398757 87.2713395004226 11.695657354960293 H 0.0 **** 0.06
23898 H 32.96813380662343 87.85996771538389 12.619725660622606 H 0.0 **** 0.06
23899 H 32.03809560368032 86.4601212382112 13.207339332579501 H 0.0 **** 0.06
23900 H 31.320977510776473 88.08800273577509 13.256840463806835 H 0.0 **** 0.06
23901 C 94.79584895926737 58.8272296549527 72.63873965466814 C 0.0 **** -0.24
23902 H 94.51143661378484 59.00959304468995 73.67559698839989 H 0.0 **** 0.06
23903 H 95.87584560501674 58.69644849104728 72.57651940659775 H 0.0 **** 0.06
23904 H 94.49612337177493 59.677303273826055 72.02593930202431 H 0.0 **** 0.06
23905 H 94.2992053848383 57.927000046045094 72.27873326066634 H 0.0 **** 0.06
23906 C 60.11185236510795 26.760925579195302 55.253927001314 C 0.0 **** -0.24
23907 H 60.731004787565155 27.176907100462657 54.459068825668815 H 0.0 **** 0.06
23908 H 60.431072972073025 25.741195207287305 55.46644518226671 H 0.0 **** 0.06
23909 H 59.069004643616665 26.757194961118756 54.936319395414586 H 0.0 **** 0.06
23910 H 60.21636223078542 27.37069031711107 56.15193121480451 H 0.0 **** 0.06
23911 C 40.06487896277736 4.5662468128581395 84.42543376909498 C 0.0 **** -0.24
23912 H 40.34272356109318 4.744216551723298 83.38559478381339 H 0.0 **** 0.06
23913 H 39.94660520576349 3.4956829105486804 84.59020048376192 H 0.0 **** 0.06
23914 H 39.12646071151147 5.074468543330454 84.64210312729081 H 0.0 **** 0.06
23915 H 40.846690241840236 4.9513974325518575 85.08042919771107 H 0.0 **** 0.06
23916 C 43.96152763630582 57.47595583414841 50.150092124939704 C 0.0 **** -0.24
23917 H 43.48618699447317 58.42384639930566 50.40355147669413 H 0.0 **** 0.06
23918 H 44.31220774576008 56.99015663491397 51.06063397475924 H 0.0 **** 0.06
23919 H 44.80755164685269 57.66001533270875 49.487318123033276 H 0.0 **** 0.06
23920 H 43.24017012797128 56.830691368564885 49.64840198802136 H 0.0 **** 0.06
23921 C 66.04525770246815 10.493098509847187 65.4154218551933 C 0.0 **** -0.24
23922 H 66.41154158197031 10.836386230006724 64.44709257137907 H 0.0 **** 0.06
23923 H 66.56792032422781 9.578509407046226 65.6972116125848 H 0.0 **** 0.06
23924 H 64.97583879518166 10.294609489757505 65.34920146450986 H 0.0 **** 0.06
23925 H 66.2273650398676 11.261704001559124 66.16620101950133 H 0.0 **** 0.06
23926 C 71.69226731630035 22.61248039304084 12.646441949737376 C 0.0 **** -0.24
23927 H 71.15104047365286 23.20082525850043 13.387878880444045 H 0.0 **** 0.06
23928 H 72.06325154578553 21.69735987897991 13.1089579535818 H 0.0 **** 0.06
23929 H 72.53230253144162 23.193961996435206 12.266008163447534 H 0.0 **** 0.06
23930 H 71.0227465571188 22.35923188710919 11.82487273521518 H 0.0 **** 0.06
23931 C 82.68071329743452 55.48450103855868 10.258031448479997 C 0.0 **** -0.24
23932 H 81.73841456806807 55.407704909342755 9.715116771754012 H 0.0 **** 0.06
23933 H 83.47174254826854 55.786653176661865 9.57063727916021 H 0.0 **** 0.06
23934 H 82.92803777583322 54.516135192245166 10.6933038532556 H 0.0 **** 0.06
23935 H 82.58357926003265 56.2255054256407 11.051114868287897 H 0.0 **** 0.06
23936 C 90.16217240063783 77.10244528233605 45.66335596433967 C 0.0 **** -0.24
23937 H 89.26042044940385 77.71296295227057 45.698632138066266 H 0.0 **** 0.06
23938 H 90.38346988619044 76.84125352483477 44.62880576179771 H 0.0 **** 0.06
23939 H 90.00706224673839 76.19181895523616 46.24309509533955 H 0.0 **** 0.06
23940 H 90.99799949200371 77.66287502620185 46.083973978036454 H 0.0 **** 0.06
23941 C 97.71210391194906 66.49829357282562 34.791944386204534 C 0.0 **** -0.24
23942 H 97.93159376291547 65.88184354759285 35.66351619692364 H 0.0 **** 0.06
23943 H 96.65102810215753 66.42622494050957 34.553522297370534 H 0.0 **** 0.06
23944 H 98.30058625426967 66.14825706780888 33.94372575186708 H 0.0 **** 0.06
23945 H 97.96729142798728 67.53657293672042 35.00777589000137 H 0.0 **** 0.06
23946 C 45.81965420679768 65.63046678822361 58.878187337962316 C 0.0 **** -0.24
23947 H 45.760366255705435 64.71632459131601 59.47022950235535 H 0.0 **** 0.06
23948 H 46.785164595361096 65.67274812559573 58.3733934426826 H 0.0 **** 0.06
23949 H 45.71345968094357 66.4942939486272 59.533669736556064 H 0.0 **** 0.06
23950 H 45.021492066773135 65.63545911599601 58.13726491508495 H 0.0 **** 0.06
23951 C 32.175975572325314 56.140330035959366 24.623301698611385 C 0.0 **** -0.24
23952 H 32.811018180501236 55.85879250700411 25.46308521410026 H 0.0 **** 0.06
23953 H 31.676016108215663 55.25341644141829 24.233680488795187 H 0.0 **** 0.06
23954 H 32.78800103177775 56.586989466261365 23.838722747833117 H 0.0 **** 0.06
23955 H 31.430816431546134 56.86189279571567 24.9573344391801 H 0.0 **** 0.06
23956 C 76.89885776560861 66.87211937236657 5.446333896714577 C 0.0 **** -0.24
23957 H 76.70817802195847 66.7154916032456 4.383982773532466 H 0.0 **** 0.06
23958 H 76.70992783175475 67.91590830538905 5.699106631297411 H 0.0 **** 0.06
23959 H 77.93633336924336 66.62560216363119 5.6690140083998415 H 0.0 **** 0.06
23960 H 76.23940251232645 66.23079930346512 6.030583135145292 H 0.0 **** 0.06
23961 C 6.620652519724558 79.6269764676536 38.93521454571061 C 0.0 **** -0.24
23962 H 6.742213844670744 79.68971389972114 37.85437660048967 H 0.0 **** 0.06
23963 H 5.799965562964985 78.94929296469653 39.16933166790756 H 0.0 **** 0.06
23964 H 6.399251298785714 80.61776736841648 39.33330976836521 H 0.0 **** 0.06
23965 H 7.540800351650489 79.25247121930175 39.38359122108534 H 0.0 **** 0.06
23966 C 7.010394252344781 54.876876360787236 62.395669109293394 C 0.0 **** -0.24
23967 H 6.536561913246089 55.80031525284076 62.72777506086135 H 0.0 **** 0.06
23968 H 6.2447375714997975 54.123595089990744 62.20753861013961 H 0.0 **** 0.06
23969 H 7.691462080951453 54.51846431388725 63.16770556776528 H 0.0 **** 0.06
23970 H 7.568192145347041 55.0649441694608 61.47840150243057 H 0.0 **** 0.06
23971 C 31.13441082184235 52.97171595004896 11.72539599027445 C 0.0 **** -0.24
23972 H 31.06294588279792 52.218453074616576 10.940271345740541 H 0.0 **** 0.06
23973 H 31.6417468151829 52.54614435777832 12.591405165395685 H 0.0 **** 0.06
23974 H 30.13371511590225 53.29360470994626 12.012046557402556 H 0.0 **** 0.06
23975 H 31.699690394115834 53.827622788039044 11.355933706927516 H 0.0 **** 0.06
23976 C 49.89025106198678 39.71162057062625 53.05294258956275 C 0.0 **** -0.24
23977 H 50.344149898199376 39.632185931322226 52.0653481248122 H 0.0 **** 0.06
23978 H 49.05340141200139 40.409443249423816 53.01347017205964 H 0.0 **** 0.06
23979 H 50.631423612719324 40.07329820274197 53.76613641875909 H 0.0 **** 0.06
23980 H 49.53214196709816 38.731027317768365 53.36812295623275 H 0.0 **** 0.06
23981 C 90.21664546566132 38.52286871238322 28.10517479093633 C 0.0 **** -0.24
23982 H 90.97857666953918 39.1875279588776 28.513730595870385 H 0.0 **** 0.06
23983 H 89.28119598016454 39.07054063524238 27.987507354262334 H 0.0 **** 0.06
23984 H 90.06512337800956 37.68394551546979 28.784124546960413 H 0.0 **** 0.06
23985 H 90.54456424503014 38.14991874430772 27.134625728379973 H 0.0 **** 0.06
23986 C 107.16919507750855 81.90816223822068 28.617406490228504 C 0.0 **** -0.24
23987 H 106.29839088867412 82.56398325879765 28.615474654446494 H 0.0 **** 0.06
23988 H 108.04021566004174 82.46081528733865 28.969802041378358 H 0.0 **** 0.06
23989 H 107.35369515922 81.54611942343467 27.60587863919431 H 0.0 **** 0.06
23990 H 106.98447860209826 81.06173098331146 29.278470625894933 H 0.0 **** 0.06
23991 C 4.032304024773822 80.47476725522905 32.363924774822 C 0.0 **** -0.24
23992 H 4.101866260045341 80.14728981244366 33.40181375840763 H 0.0 **** 0.06
23993 H 3.8763020941534734 81.55342067353781 32.33316607676454 H 0.0 **** 0.06
23994 H 3.1943761236011596 79.9724891065345 31.88038536300889 H 0.0 **** 0.06
23995 H 4.955977078777494 80.22501227941007 31.84227893427667 H 0.0 **** 0.06
23996 C 11.886560658885145 39.543802878153144 62.928329318020076 C 0.0 **** -0.24
23997 H 11.215656215608874 39.028754508582466 63.6168954645203 H 0.0 **** 0.06
23998 H 11.620890505392197 39.28706774047296 61.903486775374546 H 0.0 **** 0.06
23999 H 12.91409189875742 39.23819283608407 63.125843679308446 H 0.0 **** 0.06
24000 H 11.793676661949519 40.6201761454557 63.07013191622272 H 0.0 **** 0.06
24001 C 8.92709069195071 63.318971084373445 96.19601273184492 C 0.0 **** -0.24
24002 H 9.755353968067567 63.603181383625284 95.54707567382655 H 0.0 **** 0.06
24003 H 8.47604924814354 62.39831255210663 95.8271478552561 H 0.0 **** 0.06
24004 H 8.180089336150743 64.11351514551392 96.20044370590182 H 0.0 **** 0.06
24005 H 9.297104475768407 63.16226541166283 97.20949633836807 H 0.0 **** 0.06
24006 C 90.85322713816902 76.43943356228237 26.439584431620574 C 0.0 **** -0.24
24007 H 89.90334901178113 76.53206442847971 25.911455646634067 H 0.0 **** 0.06
24008 H 91.3415598955778 75.51059162564644 26.146586843476257 H 0.0 **** 0.06
24009 H 90.67153471708207 76.43274819694795 27.514473751622745 H 0.0 **** 0.06
24010 H 91.49366386714718 77.28438481395239 26.18443134732314 H 0.0 **** 0.06
24011 C 20.353842653293924 19.071726866278354 61.73242494407785 C 0.0 **** -0.24
24012 H 19.43856708878435 18.712730760942904 61.2631305392689 H 0.0 **** 0.06
24013 H 21.147516481756423 18.337488928885932 61.58851716313255 H 0.0 **** 0.06
24014 H 20.182184658633737 19.217369670389118 62.79911308481904 H 0.0 **** 0.06
24015 H 20.647749796792134 20.018067160024998 61.27906584610456 H 0.0 **** 0.06
24016 C 52.52138397801804 85.8194409782605 39.66141937429508 C 0.0 **** -0.24
24017 H 51.60286911992475 85.24085714143104 39.76064674497481 H 0.0 **** 0.06
24018 H 52.2879676084184 86.80245107574922 39.25134882920259 H 0.0 **** 0.06
24019 H 53.20821750789605 85.300527804934 38.99430875204858 H 0.0 **** 0.06
24020 H 52.98488417061202 85.93493160665332 40.641705761301864 H 0.0 **** 0.06
24021 C 37.04777442002907 44.90348440872657 83.3420096109142 C 0.0 **** -0.24
24022 H 36.77514630615847 44.581365034874814 84.34732593716353 H 0.0 **** 0.06
24023 H 38.056806290751844 44.55829723245714 83.11186950657782 H 0.0 **** 0.06
24024 H 37.0149088293972 45.991473208218075 83.28900900708038 H 0.0 **** 0.06
24025 H 36.34662365618345 44.48275264524927 82.62271471356172 H 0.0 **** 0.06
24026 C 109.06332918403888 73.53226832687784 78.57234462879885 C 0.0 **** -0.24
24027 H 109.56862653137003 72.60700917246069 78.84700421830547 H 0.0 **** 0.06
24028 H 107.99442203946387 73.43203375422348 78.76091401468202 H 0.0 **** 0.06
24029 H 109.22760655800191 73.7358417250066 77.51395306371381 H 0.0 **** 0.06
24030 H 109.461971986562 74.3539155693681 79.16683647521506 H 0.0 **** 0.06
24031 C 26.75367137666396 29.428414779860873 72.6153517943809 C 0.0 **** -0.24
24032 H 25.726511341250344 29.773410401565513 72.73354292487676 H 0.0 **** 0.06
24033 H 26.757442030020435 28.465151020021068 72.10572982676423 H 0.0 **** 0.06
24034 H 27.215251899424196 29.321933872924205 73.59812399916606 H 0.0 **** 0.06
24035 H 27.3155432737126 30.154291614775957 72.0274345704657 H 0.0 **** 0.06
24036 C 55.739518797526124 51.54200994047994 89.09908635133061 C 0.0 **** -0.24
24037 H 55.60048843933665 52.61904435847117 89.1998402779892 H 0.0 **** 0.06
24038 H 56.12746430274571 51.31784331871364 88.10508810796895 H 0.0 **** 0.06
24039 H 54.78273846018994 51.03867447704778 89.23794476270315 H 0.0 **** 0.06
24040 H 56.44522074702823 51.19552736452175 89.85333060172222 H 0.0 **** 0.06
24041 C 69.09833031084251 20.801094530190994 6.691951010396892 C 0.0 **** -0.24
24042 H 69.28242718635134 20.08861926176874 5.887896788746787 H 0.0 **** 0.06
24043 H 69.87924622950489 21.562085055657448 6.68839384918374 H 0.0 **** 0.06
24044 H 69.10494543255176 20.277435286420513 7.648271633962267 H 0.0 **** 0.06
24045 H 68.1282844562562 21.274396683429558 6.542917688311093 H 0.0 **** 0.06
24046 C 47.480784336238884 60.10438439147538 64.643858067488 C 0.0 **** -0.24
24047 H 46.95191400591176 59.915083065772734 63.710309465077216 H 0.0 **** 0.06
24048 H 47.43633881536638 61.16906948610918 64.87686062833171 H 0.0 **** 0.06
24049 H 48.521538056580994 59.79859665968712 64.54142089793797 H 0.0 **** 0.06
24050 H 47.012180938115364 59.53603886735789 65.44828280803586 H 0.0 **** 0.06
24051 C 18.538210387050867 94.14949691858567 59.326421048370435 C 0.0 **** -0.24
24052 H 19.52326798395694 94.47480712852683 58.992905491756176 H 0.0 **** 0.06
24053 H 17.93223724269984 93.88239170798337 58.46014380531099 H 0.0 **** 0.06
24054 H 18.0543753173136 94.95816836402545 59.8736677508121 H 0.0 **** 0.06
24055 H 18.643519180645285 93.28173666907128 59.97801455577752 H 0.0 **** 0.06
24056 C 29.65596096840588 74.18512117111013 101.74252443588607 C 0.0 **** -0.24
24057 H 29.01036210376722 74.88641683686359 102.27072073826574 H 0.0 **** 0.06
24058 H 29.353696136973554 73.16423623391745 101.98003416850644 H 0.0 **** 0.06
24059 H 30.689790828111512 74.34021226795466 102.05243970809114 H 0.0 **** 0.06
24060 H 29.570037940015823 74.3493782104598 100.66912579394503 H 0.0 **** 0.06
24061 C 9.509952443467455 36.634273636952514 9.615756892615451 C 0.0 **** -0.24
24062 H 9.439587277428956 37.5159483131487 8.97780436250369 H 0.0 **** 0.06
24063 H 8.507617474284814 36.29092703647421 9.87123207989751 H 0.0 **** 0.06
24064 H 10.052183291184093 36.88769215947753 10.5266540420983 H 0.0 **** 0.06
24065 H 10.040654069724923 35.84407258976015 9.083937382401075 H 0.0 **** 0.06
24066 C 73.88772888451824 37.21696333216594 29.830792217433938 C 0.0 **** -0.24
24067 H 73.24207853207743 36.44853272906169 29.405550053697098 H 0.0 **** 0.06
24068 H 73.28206559011514 37.93908244418263 30.378131977939084 H 0.0 **** 0.06
24069 H 74.42403755442166 37.724759350696296 29.029088355056942 H 0.0 **** 0.06
24070 H 74.60415471539909 36.753582895280296 30.509776390811503 H 0.0 **** 0.06
24071 C 89.79910341175545 11.321866674722287 20.891124336257434 C 0.0 **** -0.24
24072 H 90.09564922005141 12.257680739073123 21.364581273380452 H 0.0 **** 0.06
24073 H 88.84650216407707 11.460563707426218 20.37927778930066 H 0.0 **** 0.06
24074 H 89.69434178916921 10.547819240040951 21.650890351737843 H 0.0 **** 0.06
24075 H 90.55954420843203 11.023572580994767 20.170137345622777 H 0.0 **** 0.06
24076 C 30.364536600270128 108.19987298470119 89.65696888093134 C 0.0 **** -0.24
24077 H 29.728946624564912 108.97622484080944 90.08204182293741 H 0.0 **** 0.06
24078 H 31.294798564060898 108.14124848665023 90.22380996172933 H 0.0 **** 0.06
24079 H 30.5870461774889 108.44096564438581 88.6171767307527 H 0.0 **** 0.06
24080 H 29.848676310449207 107.24097321395033 89.70534497381175 H 0.0 **** 0.06
24081 C 12.430660115866374 99.59365199337032 53.2451192780523 C 0.0 **** -0.24
24082 H 12.500827672621654 100.18840726790168 54.15667542800685 H 0.0 **** 0.06
24083 H 11.468466580193194 99.08068050691656 53.219413396297 H 0.0 **** 0.06
24084 H 13.235490194616489 98.85877595006826 53.22916290022931 H 0.0 **** 0.06
24085 H 12.518243487384666 100.2468977237541 52.37742233079331 H 0.0 **** 0.06
24086 C 108.75327420985275 83.84207907837992 21.823154578197318 C 0.0 **** -0.24
24087 H 109.03001972073942 83.11430528759942 21.059213362190576 H 0.0 **** 0.06
24088 H 109.47317287102214 84.66118874292033 21.82167381635651 H 0.0 **** 0.06
24089 H 108.75278964155092 83.3607565126689 22.80023038353451 H 0.0 **** 0.06
24090 H 107.758050331766 84.23218102726969 21.60947309663328 H 0.0 **** 0.06
24091 C 58.130566745497276 22.783042976086676 38.497655598088784 C 0.0 **** -0.24
24092 H 57.99953088814334 23.5248207816135 37.71060344423853 H 0.0 **** 0.06
24093 H 58.27921862487341 23.28835739628397 39.452129713288116 H 0.0 **** 0.06
24094 H 59.001779651410175 22.16658797055112 38.273693065891166 H 0.0 **** 0.06
24095 H 57.24381486713435 22.15182177403463 38.55360873554463 H 0.0 **** 0.06
24096 C 3.8519570128216003 75.55589171125791 45.535367707307614 C 0.0 **** -0.24
24097 H 2.7684446707748975 75.54906657797756 45.40833074952446 H 0.0 **** 0.06
24098 H 4.205542666678269 76.58663404695471 45.58154518629178 H 0.0 **** 0.06
24099 H 4.318649044567337 75.04816811743183 44.69194604185712 H 0.0 **** 0.06
24100 H 4.111595348800051 75.04056405983465 46.4602121373999 H 0.0 **** 0.06
24101 C 41.63406669973881 3.9314090880300228 18.424995285128745 C 0.0 **** -0.24
24102 H 41.21728104562726 3.386586446884081 19.27196037361611 H 0.0 **** 0.06
24103 H 42.163103733312084 4.813681503615868 18.78581114326876 H 0.0 **** 0.06
24104 H 40.828783074677176 4.237659245117072 17.757602621788152 H 0.0 **** 0.06
24105 H 42.329080645086094 3.287695840933708 17.88487697775085 H 0.0 **** 0.06
24106 C 9.702293417886988 8.628558256803615 71.47711558898084 C 0.0 **** -0.24
24107 H 9.358733814291053 8.645641366610036 72.51112951543678 H 0.0 **** 0.06
24108 H 10.506581813092856 7.899672058273978 71.37304833198004 H 0.0 **** 0.06
24109 H 10.068774707814713 9.616749073502874 71.19903243577335 H 0.0 **** 0.06
24110 H 8.873791333072562 8.351368602325522 70.82361259441672 H 0.0 **** 0.06
24111 C 13.807937909838301 56.163023051044696 16.44725212224578 C 0.0 **** -0.24
24112 H 14.78905563713522 56.0652692764451 16.9128625920641 H 0.0 **** 0.06
24113 H 13.813731349507862 57.01039711857281 15.762326254471258 H 0.0 **** 0.06
24114 H 13.05490482851826 56.32398068843303 17.21837251199361 H 0.0 **** 0.06
24115 H 13.575683109461465 55.251310916291395 15.896485770411694 H 0.0 **** 0.06
24116 C 4.7002629305208785 4.975927579461894 75.55044420851145 C 0.0 **** -0.24
24117 H 4.156098834968958 4.709224402274318 74.64512235756229 H 0.0 **** 0.06
24118 H 5.687332799733255 4.512456375364199 75.53055830327082 H 0.0 **** 0.06
24119 H 4.150204202271652 4.622919907588056 76.42232539618163 H 0.0 **** 0.06
24120 H 4.80849887054103 6.059766530769869 75.60314170909389 H 0.0 **** 0.06
24121 C 10.301587388397206 38.66777787341255 54.36129428302155 C 0.0 **** -0.24
24122 H 10.86798783529082 37.82786169129063 54.763688627451046 H 0.0 **** 0.06
24123 H 9.44015715001875 38.2930284798351 53.80840577361575 H 0.0 **** 0.06
24124 H 10.937244536188672 39.24926118024047 53.69411066605525 H 0.0 **** 0.06
24125 H 9.960592682588759 39.30055192151516 55.18113970374425 H 0.0 **** 0.06
24126 C 50.74887689513278 89.60814261062711 83.38184100198362 C 0.0 **** -0.24
24127 H 51.590319456971486 89.79573630438624 82.7145068227417 H 0.0 **** 0.06
24128 H 50.68443923976494 90.40774412940432 84.11927101506677 H 0.0 **** 0.06
24129 H 50.89423798387307 88.65560641236853 83.8899834396326 H 0.0 **** 0.06
24130 H 49.82598096135945 89.57369057870349 82.80144019236451 H 0.0 **** 0.06
24131 C 46.59942300516062 11.570851882667654 0.7321072187661981 C 0.0 **** -0.24
24132 H 47.63058205722717 11.218187932192293 0.7482936886791656 H 0.0 **** 0.06
24133 H 46.57249417119735 12.626642319894927 1.0023039431449483 H 0.0 **** 0.06
24134 H 46.008426589441655 10.996888819175325 1.445025478611642 H 0.0 **** 0.06
24135 H 46.18811047579001 11.44059512094816 -0.26945561028100506 H 0.0 **** 0.06
24136 C 68.28785856070827 18.12419188325279 12.32433337468457 C 0.0 **** -0.24
24137 H 67.96795652311413 18.223399334638344 11.286588473284581 H 0.0 **** 0.06
24138 H 68.97935069798187 17.28507666174093 12.412129876101062 H 0.0 **** 0.06
24139 H 67.41863204045407 17.94694366902931 12.957228438577687 H 0.0 **** 0.06
24140 H 68.78652491669583 19.040045313068788 12.63958591039426 H 0.0 **** 0.06
24141 C 72.52601166448989 71.83652629283858 9.495417119400315 C 0.0 **** -0.24
24142 H 72.95067423383819 72.69214233677815 10.020224453445223 H 0.0 **** 0.06
24143 H 71.89826180935813 71.26548017018791 10.178632496321882 H 0.0 **** 0.06
24144 H 73.33212261207854 71.2022180196937 9.125034776834468 H 0.0 **** 0.06
24145 H 71.9251976522749 72.18717549937594 8.655963400962719 H 0.0 **** 0.06
24146 C 19.606534791893292 25.069964094033963 80.45686542530105 C 0.0 **** -0.24
24147 H 19.969372107180014 24.68309172614991 79.50467389448737 H 0.0 **** 0.06
24148 H 20.224502210727763 24.67975748679281 81.26650547712407 H 0.0 **** 0.06
24149 H 18.57294842262974 24.75893194831761 80.6060567292254 H 0.0 **** 0.06
24150 H 19.661310277903205 26.158793854445108 80.45145377509647 H 0.0 **** 0.06
24151 C 85.37420744906886 1.3633360867057291 0.03521292142039556 C 0.0 **** -0.24
24152 H 84.62892740826153 1.6922519466957056 0.7592881051944289 H 0.0 **** 0.06
24153 H 85.10932848912805 1.7367717767720166 -0.9543798358537288 H 0.0 **** 0.06
24154 H 85.40589065748226 0.27402728782713837 0.016601890763780602 H 0.0 **** 0.06
24155 H 86.35295274451568 1.7498859914582994 0.3202141586203595 H 0.0 **** 0.06
24156 C 79.42382688523395 5.985167619776988 23.659946468367394 C 0.0 **** -0.24
24157 H 79.73235994972549 4.9864762519199815 23.967165781972085 H 0.0 **** 0.06
24158 H 79.08370499239186 6.544863589276673 24.531642182146925 H 0.0 **** 0.06
24159 H 78.61180306896847 5.908045652779691 22.93743186611877 H 0.0 **** 0.06
24160 H 80.26822506055129 6.501818956217193 23.203233207902088 H 0.0 **** 0.06
24161 C 105.10587936507171 5.8151554440023006 42.95042116623447 C 0.0 **** -0.24
24162 H 104.7876512147883 5.241229261930073 43.820105241714884 H 0.0 **** 0.06
24163 H 104.29399693111274 5.854466410498617 42.22386322045675 H 0.0 **** 0.06
24164 H 105.9760093176404 5.339334228717547 42.4989836160921 H 0.0 **** 0.06
24165 H 105.36587590283453 6.827821235817794 43.2589056313529 H 0.0 **** 0.06
24166 C 68.28935461616913 54.82736920272733 79.28728419539496 C 0.0 **** -0.24
24167 H 69.06517202193288 54.97275082138779 80.03873903894564 H 0.0 **** 0.06
24168 H 67.69953455357904 55.739562813045936 79.19143521326961 H 0.0 **** 0.06
24169 H 67.64055700045583 54.00493736298285 79.58806380109512 H 0.0 **** 0.06
24170 H 68.7525250190863 54.59205130606048 78.32848359930033 H 0.0 **** 0.06
24171 C 95.82693830427024 12.12319811147097 59.95550665686568 C 0.0 **** -0.24
24172 H 96.76132583324261 11.57378066908936 60.071942487172635 H 0.0 **** 0.06
24173 H 95.17480772063402 11.914664578234408 60.80379454616917 H 0.0 **** 0.06
24174 H 95.33566016460111 11.811481359658615 59.03303259885715 H 0.0 **** 0.06
24175 H 96.03767840429077 13.190920538333984 59.91213380101951 H 0.0 **** 0.06
24176 C 99.85456431431822 41.58103147512781 79.79303762964557 C 0.0 **** -0.24
24177 H 99.13976844979388 40.848739806221104 79.41773023038968 H 0.0 **** 0.06
24178 H 100.83244022151119 41.3952437898494 79.34881976785255 H 0.0 **** 0.06
24179 H 99.9256403703687 41.49751187521731 80.87706230010949 H 0.0 **** 0.06
24180 H 99.51938436001855 42.583924087491454 79.52702877802642 H 0.0 **** 0.06
24181 C 37.50699227327851 4.957189149757156 101.88427483888893 C 0.0 **** -0.24
24182 H 36.90847335145679 5.78943029542873 102.25499528341368 H 0.0 **** 0.06
24183 H 37.684997879958985 5.084005459748354 100.81638744160091 H 0.0 **** 0.06
24184 H 36.97361603047176 4.022320560657974 102.05528170644175 H 0.0 **** 0.06
24185 H 38.460749168827306 4.932430609527472 102.4112460481025 H 0.0 **** 0.06
24186 C 49.67400566995485 20.104514952968827 66.71847063273349 C 0.0 **** -0.24
24187 H 49.78794941011245 21.007032959963084 67.3190353164144 H 0.0 **** 0.06
24188 H 50.65471946350414 19.760254599807666 66.39096780606945 H 0.0 **** 0.06
24189 H 49.056082526962655 20.324669580129523 65.84815874906307 H 0.0 **** 0.06
24190 H 49.196180840597265 19.328731955633316 67.31742311526611 H 0.0 **** 0.06
24191 C 95.91082891033523 59.69289351753848 102.26312541516192 C 0.0 **** -0.24
24192 H 94.87324313942344 59.89713639500772 102.52841489260516 H 0.0 **** 0.06
24193 H 96.19102801140934 58.70434239807468 102.62787607691853 H 0.0 **** 0.06
24194 H 96.55646281690417 60.44408205818321 102.71797208601004 H 0.0 **** 0.06
24195 H 96.02252773654553 59.726213648070186 101.17963753971914 H 0.0 **** 0.06
24196 C 90.86846913964078 42.24044317235679 76.6643022116283 C 0.0 **** -0.24
24197 H 91.66841154746345 42.25940841502306 77.405220819052 H 0.0 **** 0.06
24198 H 90.15315920218353 43.03316422268958 76.88266630206013 H 0.0 **** 0.06
24199 H 90.36312979189302 41.27477454283826 76.70009547285977 H 0.0 **** 0.06
24200 H 91.2894830363 42.39342113587915 75.67060361330937 H 0.0 **** 0.06
24201 C 80.70776918750676 82.14141828628061 93.85391873915795 C 0.0 **** -0.24
24202 H 81.13553365200346 81.14745329774394 93.7256690107126 H 0.0 **** 0.06
24203 H 80.90211868311621 82.49333439076838 94.86746608958015 H 0.0 **** 0.06
24204 H 79.6320400044491 82.09944552820892 93.6844789151916 H 0.0 **** 0.06
24205 H 81.16190429215493 82.82671237939945 93.13839364307157 H 0.0 **** 0.06
24206 C 7.9126409356988034 89.55735575394215 89.36560918824918 C 0.0 **** -0.24
24207 H 7.419665801841489 90.47799264647676 89.6788648725057 H 0.0 **** 0.06
24208 H 8.668188974617365 89.7865265799552 88.61354815375955 H 0.0 **** 0.06
24209 H 7.174688916621278 88.87459806526999 88.94400553767684 H 0.0 **** 0.06
24210 H 8.388867917195896 89.09012464871444 90.22807939748304 H 0.0 **** 0.06
24211 C 22.059876556506225 40.17963696053218 105.5307020283903 C 0.0 **** -0.24
24212 H 22.262090614971243 39.343529238498164 106.20025876496045 H 0.0 **** 0.06
24213 H 22.806727651309785 40.95863354481561 105.68486311730517 H 0.0 **** 0.06
24214 H 21.068403023631504 40.580645854277776 105.74152653507157 H 0.0 **** 0.06
24215 H 22.1010637822138 39.835307468868706 104.49730971192301 H 0.0 **** 0.06
24216 C 94.64368339335654 27.224877245621094 44.17593425925955 C 0.0 **** -0.24
24217 H 95.16460417094306 26.672087537708936 43.39422910995401 H 0.0 **** 0.06
24218 H 93.69872669262617 27.601204876794796 43.7860007555268 H 0.0 **** 0.06
24219 H 95.26208798087099 28.06134096320016 44.50225787539114 H 0.0 **** 0.06
24220 H 94.45110188867257 26.56328010863127 45.02073865972861 H 0.0 **** 0.06
24221 C 101.84607739389611 31.413211089410794 92.94232551850726 C 0.0 **** -0.24
24222 H 102.04355927372005 31.463022818659 91.8712673552767 H 0.0 **** 0.06
24223 H 101.20101788171175 32.24344922146361 93.23200602022615 H 0.0 **** 0.06
24224 H 102.7875339664434 31.477151001875626 93.48863963313732 H 0.0 **** 0.06
24225 H 101.35334697336148 30.470437131800736 93.17783944558596 H 0.0 **** 0.06
24226 C 15.220113155504293 33.35482282941178 88.64876952547509 C 0.0 **** -0.24
24227 H 16.23084907697475 32.96488873016671 88.76537190748175 H 0.0 **** 0.06
24228 H 14.713568463297435 33.3448169867025 89.61489649417928 H 0.0 **** 0.06
24229 H 14.66924033193385 32.733743435374215 87.94197647633962 H 0.0 **** 0.06
24230 H 15.266527465694637 34.377867766483455 88.27374193023269 H 0.0 **** 0.06
24231 C 88.05393942616121 92.48793927466299 79.04378614618496 C 0.0 **** -0.24
24232 H 88.05730722648264 91.70272199709743 79.79961637586268 H 0.0 **** 0.06
24233 H 87.12685068730782 92.43567215939672 78.47142038221044 H 0.0 **** 0.06
24234 H 88.90254358135037 92.34989611719178 78.37420276132411 H 0.0 **** 0.06
24235 H 88.12757939102264 93.4601687200879 79.52893439287604 H 0.0 **** 0.06
24236 C 31.993747061874927 51.68412882489599 23.77766049752225 C 0.0 **** -0.24
24237 H 31.140812922945102 51.693774225758716 24.45643821919296 H 0.0 **** 0.06
24238 H 31.739266223419747 52.22745895708735 22.86752658209224 H 0.0 **** 0.06
24239 H 32.246044073554344 50.65350732016938 23.52736784087824 H 0.0 **** 0.06
24240 H 32.84723130595671 52.15961459404991 24.26012474666601 H 0.0 **** 0.06
24241 C 65.78723332497788 81.78635542340106 58.19308187728359 C 0.0 **** -0.24
24242 H 64.8940518973139 81.98028021448516 58.78722999883877 H 0.0 **** 0.06
24243 H 66.63657018321886 81.62394017039509 58.85671208519244 H 0.0 **** 0.06
24244 H 65.98705265670041 82.64193038375274 57.54853742643587 H 0.0 **** 0.06
24245 H 65.62894133413272 80.89856139187094 57.580204806638164 H 0.0 **** 0.06
24246 C 72.49154997738066 54.0470971901954 48.12279673891851 C 0.0 **** -0.24
24247 H 73.09871552170524 54.45820740557468 48.92996915529119 H 0.0 **** 0.06
24248 H 71.51533529182771 53.75869232758974 48.5146034063813 H 0.0 **** 0.06
24249 H 72.98941087990275 53.17232220334203 47.704200133322104 H 0.0 **** 0.06
24250 H 72.36292110761605 54.800105108088104 47.34525795899157 H 0.0 **** 0.06
24251 C 18.10215941165559 47.95730783558447 3.867113105840275 C 0.0 **** -0.24
24252 H 18.16388732657626 46.92829392168126 3.5143315234104904 H 0.0 **** 0.06
24253 H 17.240778024601237 48.063401197131476 4.527019309854211 H 0.0 **** 0.06
24254 H 17.992710672665414 48.62818427009503 3.0154825473512545 H 0.0 **** 0.06
24255 H 19.011235351095582 48.20934186249554 4.413854989011057 H 0.0 **** 0.06
24256 C 91.86071211629246 55.06558489245637 27.86043603653792 C 0.0 **** -0.24
24257 H 91.87990249370131 55.18631789665182 26.777475687829885 H 0.0 **** 0.06
24258 H 91.6858531478471 54.017333982362224 28.106412302712478 H 0.0 **** 0.06
24259 H 91.06109775278944 55.67586607695075 28.279819619144845 H 0.0 **** 0.06
24260 H 92.81662897647897 55.382090751555324 28.277783448598747 H 0.0 **** 0.06
24261 C 89.7430175834514 102.44699413473788 104.6599866710173 C 0.0 **** -0.24
24262 H 88.99758762274593 102.94569988552786 105.28017346211521 H 0.0 **** 0.06
24263 H 89.24223207848746 101.89595625837762 103.86377437893879 H 0.0 **** 0.06
24264 H 90.3211466632556 101.75501249762198 105.27275421811271 H 0.0 **** 0.06
24265 H 90.40862071272664 103.19124019545794 104.22459712241633 H 0.0 **** 0.06
24266 C 59.16524380230638 99.42474731086018 99.79774896412525 C 0.0 **** -0.24
24267 H 59.54176390859004 100.14734551224504 99.07383646566225 H 0.0 **** 0.06
24268 H 58.99166330280505 98.47015646044042 99.29957323842284 H 0.0 **** 0.06
24269 H 58.22950443745367 99.78869769007493 100.22176407434503 H 0.0 **** 0.06
24270 H 59.89889599208004 99.29236965778554 100.59315797947558 H 0.0 **** 0.06
24271 C 67.24549090902185 5.923993735477776 102.2074164867332 C 0.0 **** -0.24
24272 H 66.61172500732539 6.810926296321217 102.20628159991753 H 0.0 **** 0.06
24273 H 68.27982030068084 6.216709293287122 102.01961257770188 H 0.0 **** 0.06
24274 H 66.9143530901373 5.239905584465294 101.42621228789244 H 0.0 **** 0.06
24275 H 67.17785474951444 5.43042144617935 103.1755980207003 H 0.0 **** 0.06
24276 C 79.42873996759866 7.896927098519001 1.158170247484307 C 0.0 **** -0.24
24277 H 78.50708541059964 8.002596075286363 1.7298089206310863 H 0.0 **** 0.06
24278 H 80.14522443836054 8.652264599249492 1.4806638377993977 H 0.0 **** 0.06
24279 H 79.2153203759562 8.027774054487423 0.09702226292063187 H 0.0 **** 0.06
24280 H 79.846974454659 6.9037963143666445 1.324693714789646 H 0.0 **** 0.06
24281 C 106.86360419908124 26.599293961333018 88.51219575122145 C 0.0 **** -0.24
24282 H 106.4231475706261 26.048426347275083 87.6817798064617 H 0.0 **** 0.06
24283 H 107.31221314733398 27.52106922641329 88.13888844705008 H 0.0 **** 0.06
24284 H 107.62923985746556 25.98786696710694 88.98813992488131 H 0.0 **** 0.06
24285 H 106.08800279691883 26.84171329316223 89.23852500491522 H 0.0 **** 0.06
24286 C 68.00261879565295 83.20696453283233 90.50837227332357 C 0.0 **** -0.24
24287 H 68.09088892592257 84.12425279961556 89.92544558139747 H 0.0 **** 0.06
24288 H 67.07705319252824 83.2291373072083 91.08300999356089 H 0.0 **** 0.06
24289 H 68.8513036833819 83.12647546012573 91.18781347595723 H 0.0 **** 0.06
24290 H 67.99357007236523 82.34973153044842 89.8359962550714 H 0.0 **** 0.06
24291 C 44.49784297520824 66.66847588120297 96.66770061288538 C 0.0 **** -0.24
24292 H 43.67387504676347 67.3721218599809 96.78725421692444 H 0.0 **** 0.06
24293 H 44.15517341729009 65.79982790691702 96.10536962636083 H 0.0 **** 0.06
24294 H 44.848361189711085 66.3506676170307 97.64967604728159 H 0.0 **** 0.06
24295 H 45.31304823376499 67.15178112161635 96.12946155672445 H 0.0 **** 0.06
24296 C 0.45457605882944563 29.614191236204363 40.37642846119908 C 0.0 **** -0.24
24297 H 1.489412866656437 29.89722534434813 40.57143200905318 H 0.0 **** 0.06
24298 H -0.022199171967542952 30.380955928229184 39.76428775705523 H 0.0 **** 0.06
24299 H -0.08048849623642695 29.518546779332922 41.3208753307423 H 0.0 **** 0.06
24300 H 0.43275131537328093 28.66125463932292 39.84734585368918 H 0.0 **** 0.06
24301 C 38.240232345519544 29.52690844640452 72.24443048231572 C 0.0 **** -0.24
24302 H 37.33631953553041 30.05729993874081 72.5426222326397 H 0.0 **** 0.06
24303 H 37.96762809647394 28.636831452766074 71.67620623270538 H 0.0 **** 0.06
24304 H 38.79890964656602 29.234139285021627 73.13275570314278 H 0.0 **** 0.06
24305 H 38.85612584508764 30.178563193264154 71.62488376312217 H 0.0 **** 0.06
24306 C 93.18841316949073 29.645532656409756 106.945493102064 C 0.0 **** -0.24
24307 H 92.90843375245431 30.64382351743214 106.61025034014173 H 0.0 **** 0.06
24308 H 94.0468375566665 29.71439915731466 107.61466565492637 H 0.0 **** 0.06
24309 H 93.44951658114503 29.03368108072199 106.08128387675197 H 0.0 **** 0.06
24310 H 92.3509097224513 29.190755057872934 107.47364187796558 H 0.0 **** 0.06
24311 C 42.26779134768083 10.67722493832565 67.03338250946695 C 0.0 **** -0.24
24312 H 41.99836847581332 11.477403648856978 67.72245811541154 H 0.0 **** 0.06
24313 H 41.93382900897956 9.721255559705526 67.43657422605781 H 0.0 **** 0.06
24314 H 43.35085470619822 10.659131945388538 66.9038743297092 H 0.0 **** 0.06
24315 H 41.790608372017516 10.852752355658538 66.06918367037366 H 0.0 **** 0.06
24316 C 0.7112403012464767 27.726716225606182 48.62414219018339 C 0.0 **** -0.24
24317 H 0.1347346598948178 28.65187220689515 48.603105330955 H 0.0 **** 0.06
24318 H 1.7418686483448909 27.94765181401698 48.90405217823405 H 0.0 **** 0.06
24319 H 0.6933241549009495 27.264236592568047 47.63723719557436 H 0.0 **** 0.06
24320 H 0.27511187166014395 27.043489522177214 49.35309358880522 H 0.0 **** 0.06
24321 C 50.49164579010903 0.7875511760007612 28.484469082832334 C 0.0 **** -0.24
24322 H 49.87611964762419 1.004324350674949 29.357762757334967 H 0.0 **** 0.06
24323 H 51.30869511919974 1.5074608219594552 28.430077968928174 H 0.0 **** 0.06
24324 H 49.88233587506528 0.8600946066777624 27.583570229865245 H 0.0 **** 0.06
24325 H 50.898199081609846 -0.22005163162242525 28.567383695216506 H 0.0 **** 0.06
24326 C 102.59125592712894 12.618459177946121 92.75860805027014 C 0.0 **** -0.24
24327 H 102.50944860623281 13.310935355345975 93.59584166366722 H 0.0 **** 0.06
24328 H 101.7381829973686 12.751068167943345 92.09266035681856 H 0.0 **** 0.06
24329 H 102.60426130732344 11.594533462446933 93.13405701420083 H 0.0 **** 0.06
24330 H 103.51330393739698 12.816417270598492 92.21231059585432 H 0.0 **** 0.06
24331 C 29.42833146867536 6.859229993519117 88.79528347010921 C 0.0 **** -0.24
24332 H 29.978135785555203 5.926929114718401 88.66597704262915 H 0.0 **** 0.06
24333 H 28.454176719897077 6.647371655495283 89.2357859372218 H 0.0 **** 0.06
24334 H 29.292713214040177 7.337405673326382 87.82543577634166 H 0.0 **** 0.06
24335 H 29.98913111488423 7.5223873798842344 89.45336694784086 H 0.0 **** 0.06
24336 C 72.41120567861287 66.16933411523509 50.1949777554442 C 0.0 **** -0.24
24337 H 71.7606725251664 65.35504195616383 49.87529544896029 H 0.0 **** 0.06
24338 H 73.42709667343388 65.98010524617608 49.8506091995136 H 0.0 **** 0.06
24339 H 72.40199084480577 66.23432600510277 51.2831666279867 H 0.0 **** 0.06
24340 H 72.051820748529 67.10821752826985 49.77267417204763 H 0.0 **** 0.06
24341 C 52.57687748629024 51.504064836570635 95.68495927139554 C 0.0 **** -0.24
24342 H 53.1714332192866 52.3725668002756 95.97111265803932 H 0.0 **** 0.06
24343 H 52.903826895127 50.63566625346656 96.25657087981722 H 0.0 **** 0.06
24344 H 52.709070041727045 51.30937859657962 94.62059642599013 H 0.0 **** 0.06
24345 H 51.52563318980293 51.70111942303294 95.89062329413571 H 0.0 **** 0.06
24346 C 89.20244636986406 13.151453354243188 56.94300269519738 C 0.0 **** -0.24
24347 H 90.05623955710755 12.709072873022365 56.42953840548813 H 0.0 **** 0.06
24348 H 88.77169037693392 12.420549347537644 57.62847738283 H 0.0 **** 0.06
24349 H 88.45242636559296 13.448416244654084 56.209907953474584 H 0.0 **** 0.06
24350 H 89.52854245819653 14.02698840887507 57.50331556369284 H 0.0 **** 0.06
24351 C 104.50955262610172 79.07733230656174 88.48193743144526 C 0.0 **** -0.24
24352 H 104.28231338618966 79.62964040233572 87.57064005348883 H 0.0 **** 0.06
24353 H 103.82427970468925 79.38290298481928 89.27208197985453 H 0.0 **** 0.06
24354 H 105.53446845917021 79.28808827774594 88.78832011812227 H 0.0 **** 0.06
24355 H 104.39807954236375 78.00906109853508 88.29666402868884 H 0.0 **** 0.06
24356 C 65.90627153663775 51.90075915436705 11.028267711572838 C 0.0 **** -0.24
24357 H 66.9820134294282 51.74821696137684 10.951926147775069 H 0.0 **** 0.06
24358 H 65.59576713469465 52.663016440217575 10.312269939973598 H 0.0 **** 0.06
24359 H 65.65607043753232 52.22797228238937 12.037979995327103 H 0.0 **** 0.06
24360 H 65.38996285228927 50.96591408024369 10.811099868997166 H 0.0 **** 0.06
24361 C 97.06048839106333 48.1885174743249 85.63443374628741 C 0.0 **** -0.24
24362 H 97.77343905399272 48.48554740755071 84.86464255126049 H 0.0 **** 0.06
24363 H 96.766049914983 47.150897565027435 85.47501039862019 H 0.0 **** 0.06
24364 H 96.18034086206325 48.828687315151114 85.57955446951493 H 0.0 **** 0.06
24365 H 97.52257077423056 48.28968398588489 86.61623772427362 H 0.0 **** 0.06
24366 C 14.694337906481167 91.5825529110025 96.83018044079155 C 0.0 **** -0.24
24367 H 15.083133802552936 91.33220735898496 95.84346027434245 H 0.0 **** 0.06
24368 H 13.73426102685329 91.08839990779711 96.97834267374712 H 0.0 **** 0.06
24369 H 14.564115771439532 92.66188062998646 96.90616539304567 H 0.0 **** 0.06
24370 H 15.397517047963788 91.24598096126681 97.59236106809115 H 0.0 **** 0.06
24371 C 1.8342818526203875 16.82291154175249 94.12978668534511 C 0.0 **** -0.24
24372 H 2.6317063865300314 17.494163493945535 93.80945117193558 H 0.0 **** 0.06
24373 H 0.876285656411949 17.200879517306987 93.77192024421095 H 0.0 **** 0.06
24374 H 1.8210604061756035 16.769182986346095 95.21808961533554 H 0.0 **** 0.06
24375 H 2.0093659292995207 15.828631328390088 93.71831942169709 H 0.0 **** 0.06
24376 C 69.85972190208531 25.57222860361776 34.047392576932644 C 0.0 **** -0.24
24377 H 69.94087973768768 26.656586554193723 33.96902723552051 H 0.0 **** 0.06
24378 H 70.40954120866462 25.228621472807447 34.923809002754275 H 0.0 **** 0.06
24379 H 70.27793247701265 25.110955611123927 33.152196480183605 H 0.0 **** 0.06
24380 H 68.81032312767718 25.292626413011703 34.14356803363972 H 0.0 **** 0.06
24381 C 11.283533256870058 6.671303712528525 49.383965209971905 C 0.0 **** -0.24
24382 H 11.793441742140118 7.59744745821015 49.65268263449343 H 0.0 **** 0.06
24383 H 11.293093905091709 5.9915486707559005 50.23531383630558 H 0.0 **** 0.06
24384 H 11.795567044931573 6.206806358215829 48.54178445349754 H 0.0 **** 0.06
24385 H 10.253076139388796 6.89222415968988 49.10605670451105 H 0.0 **** 0.06
24386 C 58.96178345460019 22.52060259328192 81.53019349440959 C 0.0 **** -0.24
24387 H 58.610719534267 23.489377722277112 81.17582546647469 H 0.0 **** 0.06
24388 H 60.03645969987531 22.567233319199005 81.7092227063107 H 0.0 **** 0.06
24389 H 58.751575676064945 21.760867808612204 80.77730331892 H 0.0 **** 0.06
24390 H 58.448728907108865 22.265433931586927 82.45763183053577 H 0.0 **** 0.06
24391 C 17.35743073568844 70.83874336067288 50.072567974936966 C 0.0 **** -0.24
24392 H 18.109560993477743 71.5483644410586 50.41549770462229 H 0.0 **** 0.06
24393 H 16.438962315107545 71.37360814966596 49.82660784969876 H 0.0 **** 0.06
24394 H 17.155492128631664 70.11361417801155 50.86118280532011 H 0.0 **** 0.06
24395 H 17.724335563593797 70.31951966458428 49.18666701540044 H 0.0 **** 0.06
24396 C 85.558292853411 91.2204843719746 67.33114191909799 C 0.0 **** -0.24
24397 H 85.77010102109678 90.15504023397983 67.41887978937194 H 0.0 **** 0.06
24398 H 86.39220547617633 91.71690209513575 66.83666041452412 H 0.0 **** 0.06
24399 H 85.41876483645758 91.6449800672974 68.32569620880145 H 0.0 **** 0.06
24400 H 84.64992901764121 91.36296413649013 66.74558531912096 H 0.0 **** 0.06
24401 C 94.44071679809798 50.19764203088256 65.2602589185683 C 0.0 **** -0.24
24402 H 93.95870740701918 51.048000097770434 64.77866787616779 H 0.0 **** 0.06
24403 H 95.01842123229034 50.54447627238966 66.1178931831675 H 0.0 **** 0.06
24404 H 95.1042614242997 49.70604468458638 64.5484081823636 H 0.0 **** 0.06
24405 H 93.68034201495607 49.491801559408124 65.59525937567429 H 0.0 **** 0.06
24406 C 93.95751554348102 19.726595444080004 48.440785789655166 C 0.0 **** -0.24
24407 H 93.71015316523484 18.792278682708485 48.94563126233851 H 0.0 **** 0.06
24408 H 93.37702451486042 19.806557083162886 47.5200728525152 H 0.0 **** 0.06
24409 H 95.02083121979855 19.74073247830279 48.20159595378601 H 0.0 **** 0.06
24410 H 93.71984584703209 20.56592991049348 49.094013629748616 H 0.0 **** 0.06
24411 C 33.80391765963489 76.70118405319425 72.49935650753724 C 0.0 **** -0.24
24412 H 33.64395626494178 77.7686995703663 72.34613815548701 H 0.0 **** 0.06
24413 H 34.27648657445758 76.54018000548125 73.46859755542226 H 0.0 **** 0.06
24414 H 34.44941016915749 76.31381161594958 71.71115230019814 H 0.0 **** 0.06
24415 H 32.845817629982776 76.1820450209799 72.47153801904182 H 0.0 **** 0.06
24416 C 14.547719791121903 15.785004379803794 31.94339989944916 C 0.0 **** -0.24
24417 H 14.125515770002238 15.10907639776913 32.687476525068405 H 0.0 **** 0.06
24418 H 15.216317104287594 15.228123277274207 31.28591301785258 H 0.0 **** 0.06
24419 H 15.104867646684632 16.575207390548883 32.445741701978335 H 0.0 **** 0.06
24420 H 13.742119794088556 16.224488490665678 31.354591560005645 H 0.0 **** 0.06
24421 C 64.1481439326505 38.74660939590359 79.93766319593792 C 0.0 **** -0.24
24422 H 63.06145790599169 38.739285574857604 80.02735014097452 H 0.0 **** 0.06
24423 H 64.49147619685704 39.76778598183654 79.7730874284307 H 0.0 **** 0.06
24424 H 64.4461936021151 38.12174430586384 79.09591806624759 H 0.0 **** 0.06
24425 H 64.59081741943226 38.356226285523235 80.85393229664923 H 0.0 **** 0.06
24426 C 48.48150122812052 2.0421744242446573 37.08937973445194 C 0.0 **** -0.24
24427 H 48.40357315865589 0.9930475432239474 36.801044938158384 H 0.0 **** 0.06
24428 H 47.506745487906045 2.519847213858667 36.984723753735466 H 0.0 **** 0.06
24429 H 49.20353463917132 2.5437494439722323 36.444449387031284 H 0.0 **** 0.06
24430 H 48.810987896102745 2.1098502447646297 38.12596227317988 H 0.0 **** 0.06
24431 C 46.76464641597309 32.138205751776695 105.39830304245527 C 0.0 **** -0.24
24432 H 47.46987195449424 31.51662677388032 104.84531258438281 H 0.0 **** 0.06
24433 H 46.08842671042544 32.62988411727804 104.69873447995877 H 0.0 **** 0.06
24434 H 47.31132455220413 32.89081121963778 105.96668046940061 H 0.0 **** 0.06
24435 H 46.19009323822024 31.513416140417633 106.08187193644855 H 0.0 **** 0.06
24436 C 80.53850724790915 7.774980801478051 60.941158876017255 C 0.0 **** -0.24
24437 H 80.81318337196572 6.814520182176423 60.50424089176346 H 0.0 **** 0.06
24438 H 80.3961937173226 8.506968373554528 60.14636714270216 H 0.0 **** 0.06
24439 H 81.33351702511091 8.111380510563265 61.60712628040105 H 0.0 **** 0.06
24440 H 79.61290124768162 7.665759422541299 61.50580394701245 H 0.0 **** 0.06
24441 C 82.11972478775014 16.637643092610205 96.2759650779273 C 0.0 **** -0.24
24442 H 83.13077413400511 16.82082127033422 95.91190759840437 H 0.0 **** 0.06
24443 H 81.40325843596347 16.8631317769956 95.48490137955534 H 0.0 **** 0.06
24444 H 81.92253419460798 17.274280528783294 97.13755513717898 H 0.0 **** 0.06
24445 H 82.02244697778947 15.5912047385155 96.5663815005586 H 0.0 **** 0.06
24446 C 14.089488791139559 27.80599720205356 73.45456130695509 C 0.0 **** -0.24
24447 H 14.516062974786166 27.936675840118824 72.45956257810595 H 0.0 **** 0.06
24448 H 13.96279766053425 26.742657353293197 73.6577129310027 H 0.0 **** 0.06
24449 H 13.122133907628722 28.304195465754105 73.50343662464682 H 0.0 **** 0.06
24450 H 14.760411531882141 28.240912268926053 74.19615923106032 H 0.0 **** 0.06
24451 C 25.930673590375612 19.237656815076406 102.03705868832645 C 0.0 **** -0.24
24452 H 26.865067181143207 19.541177155905928 102.50940590672974 H 0.0 **** 0.06
24453 H 25.7720078507334 18.171164278717697 102.19644096591338 H 0.0 **** 0.06
24454 H 25.981159326991996 19.442027167649414 100.96771879945919 H 0.0 **** 0.06
24455 H 25.10395665461358 19.79693838847568 102.47520261362283 H 0.0 **** 0.06
24456 C 9.082843536908655 38.10458255423566 103.5624215051925 C 0.0 **** -0.24
24457 H 9.44038389592248 37.999409389017046 104.5866794586832 H 0.0 **** 0.06
24458 H 7.998443486818658 38.2197559881335 103.56636223966285 H 0.0 **** 0.06
24459 H 9.35252501752943 37.21613709312459 102.99101932823578 H 0.0 **** 0.06
24460 H 9.540428719550945 38.983804018794444 103.10610647603596 H 0.0 **** 0.06
24461 C 76.38918743507713 20.329796059749953 12.239970613819409 C 0.0 **** -0.24
24462 H 77.32617840380038 20.862328830808906 12.078052058108359 H 0.0 **** 0.06
24463 H 76.16479798914946 19.715318530917443 11.366570511827288 H 0.0 **** 0.06
24464 H 75.58416212479756 21.048927841503115 12.394581881421068 H 0.0 **** 0.06
24465 H 76.47964681105367 19.692222259386256 13.119266696463999 H 0.0 **** 0.06
24466 C 46.33148844675021 25.444581324033706 101.32987057014219 C 0.0 **** -0.24
24467 H 45.349762513219375 25.42696566492735 100.8549560309987 H 0.0 **** 0.06
24468 H 46.62504251460486 24.429083340029408 101.59351931092237 H 0.0 **** 0.06
24469 H 46.28807824387913 26.056837871604017 102.22975292895742 H 0.0 **** 0.06
24470 H 47.06102441421383 25.866765847646107 100.63792951764503 H 0.0 **** 0.06
24471 C 46.20422965943794 31.134553782936507 30.0926757641261 C 0.0 **** -0.24
24472 H 46.69365382342636 30.190369595487084 30.331778410562464 H 0.0 **** 0.06
24473 H 45.698924486892196 31.515933686034828 30.98002626929673 H 0.0 **** 0.06
24474 H 45.47456320894349 30.97400598906387 29.299318268680963 H 0.0 **** 0.06
24475 H 46.95063161947044 31.855851436024295 29.75980239868899 H 0.0 **** 0.06
24476 C 90.28286326407394 7.075215705366389 79.90155158341628 C 0.0 **** -0.24
24477 H 89.73192093168062 7.4739668269137525 79.04934445649414 H 0.0 **** 0.06
24478 H 89.6873934570872 6.30273899752595 80.38994834223547 H 0.0 **** 0.06
24479 H 90.48746600758504 7.878306223063987 80.6095432496083 H 0.0 **** 0.06
24480 H 91.22258633387843 6.645639818345316 79.55659376165536 H 0.0 **** 0.06
24481 C 11.262440966413294 78.01420874796293 78.98786054079112 C 0.0 **** -0.24
24482 H 11.602871884329517 78.02571490621875 80.0229654776631 H 0.0 **** 0.06
24483 H 11.092234967454601 76.98482477579978 78.67257271290207 H 0.0 **** 0.06
24484 H 12.020948155058704 78.46967029215159 78.35147820842835 H 0.0 **** 0.06
24485 H 10.332773307864585 78.57816896972378 78.90608143738692 H 0.0 **** 0.06
24486 C 12.44918488390195 46.160149916125704 50.73289320224666 C 0.0 **** -0.24
24487 H 11.733071251506345 46.981783490853104 50.77015520016582 H 0.0 **** 0.06
24488 H 12.068662078755949 45.37671612812602 50.07689869222821 H 0.0 **** 0.06
24489 H 12.5921499667798 45.757424879727125 51.735658576876574 H 0.0 **** 0.06
24490 H 13.401147048486052 46.52712100220424 50.34917178707127 H 0.0 **** 0.06
24491 C 19.4366680011357 62.66115735981852 62.227638768890685 C 0.0 **** -0.24
24492 H 20.126208292606577 62.916163843808704 63.03183196658027 H 0.0 **** 0.06
24493 H 18.44357843014808 63.04495447452031 62.464885110939505 H 0.0 **** 0.06
24494 H 19.39156162808365 61.577845262743466 62.117578969387196 H 0.0 **** 0.06
24495 H 19.78513000496028 63.10676636925801 61.29539215226825 H 0.0 **** 0.06
24496 C 21.861378310805687 60.87650698609389 20.042490070605265 C 0.0 **** -0.24
24497 H 21.612831962145304 61.54058278535177 20.86956373439682 H 0.0 **** 0.06
24498 H 20.948930396796552 60.42931783302305 19.64791367085751 H 0.0 **** 0.06
24499 H 22.52818796726615 60.089634133076714 20.3961111894533 H 0.0 **** 0.06
24500 H 22.357220602030687 61.44612093690827 19.256034560904368 H 0.0 **** 0.06
24501 C 94.79776180839582 37.52949577528497 26.340482389042847 C 0.0 **** -0.24
24502 H 95.1635932508561 36.834284491833614 27.096147985939155 H 0.0 **** 0.06
24503 H 95.6442606827419 37.971034126203676 25.813595822091145 H 0.0 **** 0.06
24504 H 94.2174127066595 38.3162262004071 26.82104971199476 H 0.0 **** 0.06
24505 H 94.16760830104859 36.99415498194111 25.630467853490927 H 0.0 **** 0.06
24506 C 65.89769752607373 100.38908088541808 41.204850518409785 C 0.0 **** -0.24
24507 H 66.82567640878392 100.83482297760173 40.846251773636425 H 0.0 **** 0.06
24508 H 65.32962532790668 100.00111339635538 40.35901714474977 H 0.0 **** 0.06
24509 H 65.30854084037406 101.14548752207241 41.72346334959377 H 0.0 **** 0.06
24510 H 66.12802173709031 99.57407079606958 41.892447255881876 H 0.0 **** 0.06
24511 C 3.5320620428756513 41.45506909502984 59.09516427504971 C 0.0 **** -0.24
24512 H 4.42666712075939 41.26884051698852 58.49937183879504 H 0.0 **** 0.06
24513 H 3.0882593262761446 40.50404730745237 59.38907677228917 H 0.0 **** 0.06
24514 H 2.8149069943053036 42.02460335450671 58.5048337059923 H 0.0 **** 0.06
24515 H 3.801339552350214 42.02264147671613 59.98581744454032 H 0.0 **** 0.06
24516 C 6.769625545318945 94.62453855228728 100.4770063275153 C 0.0 **** -0.24
24517 H 5.9193390220629 94.19970027974807 101.01094373652946 H 0.0 **** 0.06
24518 H 6.414567043422807 95.1529129832436 99.5911040294598 H 0.0 **** 0.06
24519 H 7.446233894720436 93.82477114170382 100.17645337578524 H 0.0 **** 0.06
24520 H 7.297368246086393 95.32123662911886 101.12863299627308 H 0.0 **** 0.06
24521 C 77.09180816947308 86.60945140039934 2.0886971392956326 C 0.0 **** -0.24
24522 H 78.09412602353905 86.57622474852666 1.6614936988132172 H 0.0 **** 0.06
24523 H 76.59708439762298 87.53190240120831 1.7838686169216516 H 0.0 **** 0.06
24524 H 77.15975212280655 86.57592212380985 3.176535050544274 H 0.0 **** 0.06
24525 H 76.51733064520054 85.75316316446087 1.7344797975163857 H 0.0 **** 0.06
24526 C 48.13238497184983 35.66866934123618 105.66755571039998 C 0.0 **** -0.24
24527 H 48.451135531187845 36.104883919992545 106.61404436161168 H 0.0 **** 0.06
24528 H 48.8559170123068 34.914920089158414 105.35358848397759 H 0.0 **** 0.06
24529 H 48.0691910029626 36.450191016726706 104.91107689164764 H 0.0 **** 0.06
24530 H 47.1551008102242 35.20392586974472 105.79298685537756 H 0.0 **** 0.06
24531 C 28.1051577211999 105.3921168457951 86.38382949322978 C 0.0 **** -0.24
24532 H 29.05840720745863 105.18597762320684 86.86972851590019 H 0.0 **** 0.06
24533 H 27.602763367977758 104.45260914758069 86.15563217745272 H 0.0 **** 0.06
24534 H 28.28083753875805 105.94456582563305 85.4601728230716 H 0.0 **** 0.06
24535 H 27.479721075535934 105.98723920841786 87.04948349920012 H 0.0 **** 0.06
24536 C 96.08655090979059 48.61334788189689 15.146298926095398 C 0.0 **** -0.24
24537 H 95.76043772287446 47.57724124523217 15.059069005406272 H 0.0 **** 0.06
24538 H 96.45754469355654 48.79338212813483 16.1550348285339 H 0.0 **** 0.06
24539 H 95.24502393648291 49.27657969360674 14.94336091530974 H 0.0 **** 0.06
24540 H 96.88159190575973 48.80518268571038 14.426178065049143 H 0.0 **** 0.06
24541 C 11.796737671216334 93.15845770407572 13.622200859723431 C 0.0 **** -0.24
24542 H 12.650450979069266 93.38901554477832 12.98383685521367 H 0.0 **** 0.06
24543 H 10.92470499059406 92.95146182164711 13.000706174847096 H 0.0 **** 0.06
24544 H 11.5878274691831 94.00901605896098 14.270774570132822 H 0.0 **** 0.06
24545 H 12.025291537586835 92.28421944263249 14.231687898830298 H 0.0 **** 0.06
24546 C 64.24123508843297 72.24105189680327 29.69121925886006 C 0.0 **** -0.24
24547 H 64.16425160966139 73.08683430214279 30.374633146165053 H 0.0 **** 0.06
24548 H 65.14971813014341 71.67982969474662 29.908486461075597 H 0.0 **** 0.06
24549 H 64.27617759361783 72.60664027160956 28.66491617087621 H 0.0 **** 0.06
24550 H 63.37348327245934 71.59271087308736 29.816708760192398 H 0.0 **** 0.06
24551 C 59.52009912998298 29.59565411195203 11.751808837948602 C 0.0 **** -0.24
24552 H 58.935514180753415 28.991494385159655 11.058535234646286 H 0.0 **** 0.06
24553 H 60.39502884813719 29.993495426456718 11.236930038024639 H 0.0 **** 0.06
24554 H 59.840960670565124 28.97912876561176 12.590448299624654 H 0.0 **** 0.06
24555 H 58.90861409521135 30.42011204549567 12.118616738458059 H 0.0 **** 0.06
24556 C 97.59055134319465 57.354937789687 40.63070950711841 C 0.0 **** -0.24
24557 H 97.99839982837148 57.72852858494474 41.5691706521373 H 0.0 **** 0.06
24558 H 98.30430372350293 57.53707444045722 39.826170053495986 H 0.0 **** 0.06
24559 H 96.65594118966595 57.87116689118767 40.41022761736579 H 0.0 **** 0.06
24560 H 97.40423682332391 56.28466835838492 40.715627542151566 H 0.0 **** 0.06
24561 C 79.45524974690113 48.06582043068613 103.01459632028497 C 0.0 **** -0.24
24562 H 79.79010925760542 47.08554838145395 103.35277326729613 H 0.0 **** 0.06
24563 H 79.72293315620414 48.817321187185485 103.75885244475143 H 0.0 **** 0.06
24564 H 78.37346930387395 48.0539791540246 102.88223427516701 H 0.0 **** 0.06
24565 H 79.93503174364946 48.306290220519344 102.06582269958622 H 0.0 **** 0.06
24566 C 62.631609706005136 104.09410533338003 77.52790373284631 C 0.0 **** -0.24
24567 H 62.47937116342294 104.4125054331825 78.55913244668682 H 0.0 **** 0.06
24568 H 63.025810684879104 104.92687717080341 76.94535628720377 H 0.0 **** 0.06
24569 H 61.681304154733866 103.7710440563928 77.10385232963972 H 0.0 **** 0.06
24570 H 63.34104300908787 103.26640548563178 77.50518252464153 H 0.0 **** 0.06
24571 C 3.2380253166622595 109.1094024033218 103.48436171544068 C 0.0 **** -0.24
24572 H 3.5227878293458303 109.93407279963589 104.13773596537527 H 0.0 **** 0.06
24573 H 4.122643000560217 108.52311838130495 103.23471699421424 H 0.0 **** 0.06
24574 H 2.794042041571231 109.50447204765202 102.57124472650952 H 0.0 **** 0.06
24575 H 2.5133084479977583 108.47545842015482 103.99582273938182 H 0.0 **** 0.06
24576 C 63.90237601556157 19.4813665027296 16.258648940833723 C 0.0 **** -0.24
24577 H 64.88306391922856 19.024529225470502 16.393888848288313 H 0.0 **** 0.06
24578 H 63.14028675254377 18.7019988453344 16.224782519606933 H 0.0 **** 0.06
24579 H 63.88930132704576 20.043566833028592 15.325216202797634 H 0.0 **** 0.06
24580 H 63.69753998808028 20.15415000661973 17.090897328625786 H 0.0 **** 0.06
24581 C 39.579133682181634 63.8404279137645 103.4824708737152 C 0.0 **** -0.24
24582 H 39.918677254740885 62.80762299033209 103.56534458806492 H 0.0 **** 0.06
24583 H 39.31065031153901 64.21449390388126 104.4704608430781 H 0.0 **** 0.06
24584 H 38.70890784573601 63.88520218660055 102.82685957728243 H 0.0 **** 0.06
24585 H 40.379318363850246 64.45260131853424 103.06635061914106 H 0.0 **** 0.06
24586 C 71.32138157240855 18.22887188461619 101.57246463177194 C 0.0 **** -0.24
24587 H 70.9037373567369 17.222665771436024 101.51979104245001 H 0.0 **** 0.06
24588 H 70.78085871976977 18.882268484679198 100.88836833630972 H 0.0 **** 0.06
24589 H 72.37451512486763 18.198791501864257 101.29208670899675 H 0.0 **** 0.06
24590 H 71.22760305349546 18.608522981580737 102.58992789901424 H 0.0 **** 0.06
24591 C 17.961137634355964 88.08448067942442 85.91151786188315 C 0.0 **** -0.24
24592 H 18.949668734314397 87.62383837411892 85.92089134602287 H 0.0 **** 0.06
24593 H 17.909999674246453 88.848496009852 86.68718102431774 H 0.0 **** 0.06
24594 H 17.203995365184195 87.32364418684404 86.10126316741841 H 0.0 **** 0.06
24595 H 17.78276162011164 88.54113131221908 84.93869157066882 H 0.0 **** 0.06
24596 C 94.63330298483724 39.17986599764194 50.9252092840436 C 0.0 **** -0.24
24597 H 95.09247853751616 38.55608116328531 50.15817723467143 H 0.0 **** 0.06
24598 H 95.21454074278411 39.11098059212969 51.84428615376913 H 0.0 **** 0.06
24599 H 93.61611478960396 38.835824871000185 51.111160131791394 H 0.0 **** 0.06
24600 H 94.61137858556961 40.21574870539831 50.58559444641321 H 0.0 **** 0.06
24601 C 94.27080785531004 57.10548088728786 10.854289739364503 C 0.0 **** -0.24
24602 H 94.55604694612336 58.03030290053373 11.3564518685221 H 0.0 **** 0.06
24603 H 93.22068754182966 57.15755312675485 10.56763376209608 H 0.0 **** 0.06
24604 H 94.4227538748515 56.26436851018986 11.530921288812365 H 0.0 **** 0.06
24605 H 94.88490684389417 56.9720427420589 9.963927714447635 H 0.0 **** 0.06
24606 C 101.43671013507004 50.9340681246748 107.58892855298924 C 0.0 **** -0.24
24607 H 100.63814693871372 51.19125459964389 106.89227953473484 H 0.0 **** 0.06
24608 H 101.00816991154689 50.46855044189227 108.4765379446664 H 0.0 **** 0.06
24609 H 101.9735954899643 51.83787332647277 107.8754561989655 H 0.0 **** 0.06
24610 H 102.12605757341488 50.23849548803543 107.10938322306126 H 0.0 **** 0.06
24611 C 28.823851717201194 62.33453644872341 6.326712211767983 C 0.0 **** -0.24
24612 H 28.416276180322257 62.23133560453721 7.332463493549767 H 0.0 **** 0.06
24613 H 29.173778268427554 61.36407349322744 5.974046719095156 H 0.0 **** 0.06
24614 H 29.658166060444955 63.0369010834483 6.343695682497298 H 0.0 **** 0.06
24615 H 28.04947066190374 62.70774495342758 5.6570128582445705 H 0.0 **** 0.06
24616 C 59.36602187726152 1.5172327132576413 106.92334029254083 C 0.0 **** -0.24
24617 H 60.40402194036608 1.8478411321116965 106.97227757031496 H 0.0 **** 0.06
24618 H 59.25189135233052 0.7992488521136067 106.11073688445948 H 0.0 **** 0.06
24619 H 58.719675637965224 2.3758784587079873 106.74381078327886 H 0.0 **** 0.06
24620 H 59.09062326108307 1.0453476833933166 107.86620717347448 H 0.0 **** 0.06
24621 C 74.32924223650247 18.63149891828857 6.385694375210342 C 0.0 **** -0.24
24622 H 74.48740147402313 17.61471192396384 6.025701673833762 H 0.0 **** 0.06
24623 H 74.87283437790667 19.330027161321937 5.750454511533176 H 0.0 **** 0.06
24624 H 74.69048934192993 18.713583149687935 7.411317903877222 H 0.0 **** 0.06
24625 H 73.26502407742063 18.865058997029678 6.356126537919046 H 0.0 **** 0.06
24626 C 1.1920807648204432 44.05686743359402 19.529240153065302 C 0.0 **** -0.24
24627 H 1.5514955300964175 45.045350308814704 19.242417006951626 H 0.0 **** 0.06
24628 H 0.5998463660510414 43.636007912953545 18.71692215780638 H 0.0 **** 0.06
24629 H 0.5743769553337161 44.14109494626305 20.42404999562706 H 0.0 **** 0.06
24630 H 2.0426382444791065 43.4067495621419 19.73498418497357 H 0.0 **** 0.06
24631 C 59.44228119782841 0.557260212822186 58.91784592979741 C 0.0 **** -0.24
24632 H 59.40734582058411 1.136554982279435 57.99585846163001 H 0.0 **** 0.06
24633 H 60.26757686433524 0.9102107322049449 59.53734889576401 H 0.0 **** 0.06
24634 H 59.590018364624314 -0.49629491938267734 58.680891991615795 H 0.0 **** 0.06
24635 H 58.50330706768847 0.6793039376891841 59.45920611631999 H 0.0 **** 0.06
24636 C 102.95092613885836 97.77693687609188 104.48553238351401 C 0.0 **** -0.24
24637 H 103.73575645609701 97.98439610409478 105.2134952576243 H 0.0 **** 0.06
24638 H 102.96738334612765 96.71787192049668 104.22626515968804 H 0.0 **** 0.06
24639 H 103.11939614470417 98.37396531659797 103.59000589211415 H 0.0 **** 0.06
24640 H 101.98191118759901 98.0302647092115 104.91498770305242 H 0.0 **** 0.06
24641 C 49.58637102208005 26.422907812420238 57.25166381884716 C 0.0 **** -0.24
24642 H 49.97157942943643 25.969481148243347 58.165211643901515 H 0.0 **** 0.06
24643 H 50.26798802891026 26.214281509502857 56.42731185259087 H 0.0 **** 0.06
24644 H 49.502147726449095 27.501246329333135 57.389131551591674 H 0.0 **** 0.06
24645 H 48.60380167185149 26.007547668264035 57.02537785164619 H 0.0 **** 0.06
24646 C 29.990105924455776 21.989455102291316 31.58127275313467 C 0.0 **** -0.24
24647 H 29.767463842675284 21.019689912659288 32.02626470837566 H 0.0 **** 0.06
24648 H 29.293177304397773 22.734229017320985 31.967054081058905 H 0.0 **** 0.06
24649 H 29.88948669539363 21.924031350892335 30.498524259827775 H 0.0 **** 0.06
24650 H 31.00924928607924 22.28103285076702 31.834494144395393 H 0.0 **** 0.06
24651 C 37.674452173983234 88.89226586117422 67.82837573112289 C 0.0 **** -0.24
24652 H 36.587235257271786 88.81024425149585 67.79958738394168 H 0.0 **** 0.06
24653 H 38.07854290367665 88.12385231840084 68.48905362456708 H 0.0 **** 0.06
24654 H 37.954316112775416 89.87659017219808 68.20210107103179 H 0.0 **** 0.06
24655 H 38.07568927387338 88.75601108892441 66.82427848809232 H 0.0 **** 0.06
24656 C 48.643200295272834 69.81867760082385 57.07426789798234 C 0.0 **** -0.24
24657 H 47.96955622225801 68.96421135090495 57.0048057841758 H 0.0 **** 0.06
24658 H 49.030108167922435 69.89358160335276 58.0905693077533 H 0.0 **** 0.06
24659 H 48.100393735404396 70.73035149870636 56.823605512594554 H 0.0 **** 0.06
24660 H 49.47042493449567 69.68597373190657 56.377565735470796 H 0.0 **** 0.06
24661 C 70.3261216169118 82.07481850022407 33.9655853732801 C 0.0 **** -0.24
24662 H 69.65863078008113 81.4726480785831 34.58305901239093 H 0.0 **** 0.06
24663 H 70.08648721653972 81.91702473491473 32.91320025788722 H 0.0 **** 0.06
24664 H 71.35769440985955 81.77800702008666 34.151884391480586 H 0.0 **** 0.06
24665 H 70.19933872000244 83.12766268946334 34.21449900249105 H 0.0 **** 0.06
24666 C 1.3381633828512633 103.82846509148216 60.6675161309725 C 0.0 **** -0.24
24667 H 1.014933747984884 102.93264773750008 61.19691738866237 H 0.0 **** 0.06
24668 H 0.798044992617065 104.69296913297298 61.05382398919494 H 0.0 **** 0.06
24669 H 1.1309481682049238 103.71609049058878 59.602619074902464 H 0.0 **** 0.06
24670 H 2.408696301112599 103.97235199119945 60.81572451276378 H 0.0 **** 0.06
24671 C 90.03268956184324 51.194819674958076 106.67894249359769 C 0.0 **** -0.24
24672 H 89.66162629608644 50.52132061169607 105.90595027968409 H 0.0 **** 0.06
24673 H 89.37238934692785 52.05809800670271 106.75546021589722 H 0.0 **** 0.06
24674 H 91.03789527049977 51.52690318265315 106.41853721013194 H 0.0 **** 0.06
24675 H 90.05871071800512 50.67062209934777 107.635094020782 H 0.0 **** 0.06
24676 C 53.82706906323264 107.35044002837078 95.52297144631353 C 0.0 **** -0.24
24677 H 54.39690696371406 108.27687714430633 95.60009435249134 H 0.0 **** 0.06
24678 H 53.83187501014737 106.83996107333982 96.48636131228602 H 0.0 **** 0.06
24679 H 54.28011539659508 106.70752885059838 94.76830854102309 H 0.0 **** 0.06
24680 H 52.80006041454996 107.57890113395155 95.23661037391503 H 0.0 **** 0.06
24681 C 67.91559374410885 107.86325772666791 49.97455109187144 C 0.0 **** -0.24
24682 H 68.93632774873211 107.91257771489757 49.59779599456565 H 0.0 **** 0.06
24683 H 67.26279400467318 107.45655016511981 49.202293158991466 H 0.0 **** 0.06
24684 H 67.57949237124602 108.8638711551248 50.24551690719424 H 0.0 **** 0.06
24685 H 67.88362467411066 107.21938562439652 50.853848874356544 H 0.0 **** 0.06
24686 C 11.844036810937638 7.083038069509719 36.388458450540355 C 0.0 **** -0.24
24687 H 11.993619763257712 6.107790084789498 36.851008057583414 H 0.0 **** 0.06
24688 H 10.888284352518795 7.495938810183169 36.71251727635121 H 0.0 **** 0.06
24689 H 11.844010310167121 6.97485899718246 35.304282679161986 H 0.0 **** 0.06
24690 H 12.649689311626076 7.754228838444233 36.686538773833036 H 0.0 **** 0.06
24691 C 82.7466446138059 76.82019887343 10.916045483242101 C 0.0 **** -0.24
24692 H 82.5990232377743 77.87228217904396 11.16045605144167 H 0.0 **** 0.06
24693 H 82.54110708859304 76.66035032269718 9.85732944088386 H 0.0 **** 0.06
24694 H 82.06853361861579 76.2109741664579 11.513981615683093 H 0.0 **** 0.06
24695 H 83.77617298553844 76.53764910670577 11.13407480394244 H 0.0 **** 0.06
24696 C 56.15593324101965 108.77809050160857 8.66379508558108 C 0.0 **** -0.24
24697 H 56.62015776051332 107.88001215995651 8.257598459936894 H 0.0 **** 0.06
24698 H 55.86060243496487 108.59751135599082 9.697698264946656 H 0.0 **** 0.06
24699 H 55.27565834123099 109.03090774904054 8.072634860367012 H 0.0 **** 0.06
24700 H 56.86647355727854 109.60347707174203 8.626953509997659 H 0.0 **** 0.06
24701 C 101.33829396103015 93.17320381914968 13.12679397593675 C 0.0 **** -0.24
24702 H 101.31096320718916 93.99007738844008 12.404653037409787 H 0.0 **** 0.06
24703 H 100.944407894172 92.26753084815725 12.665291957821296 H 0.0 **** 0.06
24704 H 100.73072365160279 93.43456844515664 13.99319383435872 H 0.0 **** 0.06
24705 H 102.36786292524116 93.00269654577488 13.44176681670558 H 0.0 **** 0.06
24706 C 72.10187715582353 46.96030411091914 27.58737924617504 C 0.0 **** -0.24
24707 H 72.39938717692559 46.846341895856995 26.544540663618193 H 0.0 **** 0.06
24708 H 71.33928626271037 47.73524103255991 27.665461022783724 H 0.0 **** 0.06
24709 H 72.97017960426481 47.243389681016566 28.183170592622403 H 0.0 **** 0.06
24710 H 71.70079537338921 46.01631818933072 27.95515472657781 H 0.0 **** 0.06
24711 C 79.29161004895931 68.9786139490545 19.219545072578114 C 0.0 **** -0.24
24712 H 78.60749515758415 69.7974069436845 18.996346241656425 H 0.0 **** 0.06
24713 H 80.00542167562428 68.87031675205247 18.40374517259862 H 0.0 **** 0.06
24714 H 78.72599869651819 68.05450439601165 19.334188618174835 H 0.0 **** 0.06
24715 H 79.8263267685071 69.19458696755044 20.144899915532534 H 0.0 **** 0.06
24716 C 56.18686742294911 20.642623666851794 67.41442447891231 C 0.0 **** -0.24
24717 H 56.13741885067333 21.539183856324456 68.0324564642861 H 0.0 **** 0.06
24718 H 57.080628228409104 20.07281635118491 67.67092431780344 H 0.0 **** 0.06
24719 H 56.226772537288355 20.928148597198078 66.36366717343896 H 0.0 **** 0.06
24720 H 55.30267020398837 20.030344863405173 67.59164978179928 H 0.0 **** 0.06
24721 C 4.73251832312684 49.78061989628824 54.37383501710519 C 0.0 **** -0.24
24722 H 5.743287763001945 49.92295450361871 53.98946938516468 H 0.0 **** 0.06
24723 H 4.591229566020019 48.73324153923791 54.64270670541285 H 0.0 **** 0.06
24724 H 4.009674097029205 50.05966358499757 53.60707122198983 H 0.0 **** 0.06
24725 H 4.587775814170172 50.404458880171994 55.25523069226699 H 0.0 **** 0.06
24726 C 108.26183601768251 52.96560293310904 94.4455097601006 C 0.0 **** -0.24
24727 H 108.05962170152556 53.63258070458204 95.2836421432301 H 0.0 **** 0.06
24728 H 108.72776451682554 53.52868172628558 93.6364999971708 H 0.0 **** 0.06
24729 H 107.3264968780487 52.52972679679294 94.0938315379746 H 0.0 **** 0.06
24730 H 108.933459429897 52.16954168367471 94.7687455883028 H 0.0 **** 0.06
24731 C 65.80273830930214 36.77304433577164 91.98229308237723 C 0.0 **** -0.24
24732 H 65.01943031737287 36.96298645238081 91.24811839392518 H 0.0 **** 0.06
24733 H 66.27923707646978 35.816468994365984 91.76556179283256 H 0.0 **** 0.06
24734 H 65.36524286621203 36.74400429592595 92.98009830621629 H 0.0 **** 0.06
24735 H 66.54592521100591 37.56901569470322 91.9334802048138 H 0.0 **** 0.06
24736 C 91.13945027153184 58.957947702874016 37.48264691254683 C 0.0 **** -0.24
24737 H 90.95170246169819 58.41675446798551 38.41013358039732 H 0.0 **** 0.06
24738 H 91.54395084953893 58.27322693020111 36.73807149835003 H 0.0 **** 0.06
24739 H 91.85586357993989 59.758514068933366 37.66810135565079 H 0.0 **** 0.06
24740 H 90.20592265813539 59.384488247104414 37.11638990530877 H 0.0 **** 0.06
24741 C 83.55429545652486 15.967649862290102 3.3478680020932075 C 0.0 **** -0.24
24742 H 83.53570829206427 15.435776958150768 4.299106454751126 H 0.0 **** 0.06
24743 H 82.53327788036165 16.190104303972305 3.03715106667255 H 0.0 **** 0.06
24744 H 84.03684652634932 15.346668108044241 2.5931468694782893 H 0.0 **** 0.06
24745 H 84.11022389478914 16.89789168705539 3.4629095573907023 H 0.0 **** 0.06
24746 C 36.739178743581135 26.753124399944213 105.3342085327424 C 0.0 **** -0.24
24747 H 36.556906853077464 27.537401770961964 104.59975240157672 H 0.0 **** 0.06
24748 H 36.78728827380161 27.193913203530855 106.3304507808322 H 0.0 **** 0.06
24749 H 37.68362444381472 26.257191387037096 105.1098747706792 H 0.0 **** 0.06
24750 H 35.92911599088512 26.025368356095242 105.29652168526394 H 0.0 **** 0.06
24751 C 8.14137241393199 89.66660664936946 67.91131163507971 C 0.0 **** -0.24
24752 H 9.190350818049694 89.71290730747297 68.20709958885284 H 0.0 **** 0.06
24753 H 7.660746806771826 90.62109864969642 68.12707988024621 H 0.0 **** 0.06
24754 H 7.642278774700316 88.87269982474663 68.46734255035427 H 0.0 **** 0.06
24755 H 8.07523739402501 89.45929374417494 66.84269596949099 H 0.0 **** 0.06
24756 C 62.45676195966894 97.91239512227848 54.28936019597239 C 0.0 **** -0.24
24757 H 62.52377590122313 96.83966358227774 54.47287335245488 H 0.0 **** 0.06
24758 H 62.72754488869907 98.1208712066795 53.2553529017041 H 0.0 **** 0.06
24759 H 63.13881688828275 98.43865948274615 54.95796382605738 H 0.0 **** 0.06
24760 H 61.43626652284928 98.24822530154876 54.4732297486878 H 0.0 **** 0.06
24761 C 12.73384594975657 31.899540022914493 14.052048808163676 C 0.0 **** -0.24
24762 H 12.549394063410375 32.75827724896793 13.408029671863844 H 0.0 **** 0.06
24763 H 12.355243211229606 32.10862475906184 15.05307251042315 H 0.0 **** 0.06
24764 H 13.80572642558144 31.70575242176679 14.10199395598336 H 0.0 **** 0.06
24765 H 12.225532125692297 31.024843795045967 13.646239208360214 H 0.0 **** 0.06
24766 C 6.107738087291295 102.86728319224511 79.9690543460936 C 0.0 **** -0.24
24767 H 6.281727890434553 103.21346211351201 80.98796384915958 H 0.0 **** 0.06
24768 H 7.053299889290884 102.5623329271357 79.52275625440697 H 0.0 **** 0.06
24769 H 5.671379055062658 103.67530904094096 79.38162528628952 H 0.0 **** 0.06
24770 H 5.422968175255221 102.01919471733632 79.98614197720117 H 0.0 **** 0.06
24771 C 89.4406914687601 55.58098180928505 71.6535162435984 C 0.0 **** -0.24
24772 H 89.23483030321675 54.6701366303686 72.21545226167106 H 0.0 **** 0.06
24773 H 88.5688823839428 55.84122613471408 71.05213471727228 H 0.0 **** 0.06
24774 H 90.29794261055513 55.41786212055132 70.99967730740318 H 0.0 **** 0.06
24775 H 89.6607277723386 56.39267044172718 72.34594918894382 H 0.0 **** 0.06
24776 C 52.520633537725544 29.019426369403845 69.23086299146009 C 0.0 **** -0.24
24777 H 51.85190655476699 29.738990899635724 69.70402682102038 H 0.0 **** 0.06
24778 H 52.42600838818603 28.054433547074893 69.72757592377404 H 0.0 **** 0.06
24779 H 53.54910525884756 29.37216066519315 69.31195140543736 H 0.0 **** 0.06
24780 H 52.255298423757715 28.914248120763943 68.17870345195323 H 0.0 **** 0.06
24781 C 1.1439396475870804 95.69168919809005 22.664892336712363 C 0.0 **** -0.24
24782 H 0.24096269632694067 95.08420899362409 22.606443420524606 H 0.0 **** 0.06
24783 H 0.8683196877139965 96.74029702160986 22.780335706474506 H 0.0 **** 0.06
24784 H 1.7257841384075325 95.56705792341671 21.751402370223705 H 0.0 **** 0.06
24785 H 1.7395570899861772 95.37649929118112 23.521459925331364 H 0.0 **** 0.06
24786 C 30.856342293684257 37.75872305616036 46.65277601432246 C 0.0 **** -0.24
24787 H 31.277109175917133 38.194709016997535 45.74637910076606 H 0.0 **** 0.06
24788 H 30.185721757131432 36.94159043617981 46.38538251778918 H 0.0 **** 0.06
24789 H 30.300358102969312 38.52202172834927 47.19807284088617 H 0.0 **** 0.06
24790 H 31.661817305906354 37.37826148283699 47.28116512519916 H 0.0 **** 0.06
24791 C 52.35988101509357 22.703269042053364 15.752703861441567 C 0.0 **** -0.24
24792 H 51.39560610583093 22.243939196535994 15.536972967908124 H 0.0 **** 0.06
24793 H 52.374994614532774 23.719664934039937 15.359125612965453 H 0.0 **** 0.06
24794 H 53.152921490009284 22.120362819491 15.282441072933533 H 0.0 **** 0.06
24795 H 52.518046984020785 22.72779335693715 16.830831377721324 H 0.0 **** 0.06
24796 C 66.82538770755451 103.84111519283917 89.3480203799516 C 0.0 **** -0.24
24797 H 67.78328217424678 103.40495185360817 89.06217135467503 H 0.0 **** 0.06
24798 H 66.01541578666331 103.21088491727386 88.98112511112322 H 0.0 **** 0.06
24799 H 66.7361729203987 104.83693582852356 88.91292281902733 H 0.0 **** 0.06
24800 H 66.76872891164987 103.91246589002992 90.4338134909276 H 0.0 **** 0.06
24801 C 93.47203558659481 30.908613121787766 0.6560812659790827 C 0.0 **** -0.24
24802 H 94.23766288006345 31.359771105267697 1.287174904104063 H 0.0 **** 0.06
24803 H 93.64844313070246 29.835095867785355 0.5834246523236999 H 0.0 **** 0.06
24804 H 93.51333390064664 31.35186466978874 -0.3391787042656915 H 0.0 **** 0.06
24805 H 92.48923047551528 31.086415372347048 1.0927737693258308 H 0.0 **** 0.06
24806 C 51.62729297072543 77.27560854961655 54.996232305862634 C 0.0 **** -0.24
24807 H 52.56503035170876 76.7527498347709 55.18603553138493 H 0.0 **** 0.06
24808 H 51.17155510434538 77.55912621564079 55.94535486574699 H 0.0 **** 0.06
24809 H 50.94926410465222 76.61990929430124 54.44987325709681 H 0.0 **** 0.06
24810 H 51.822921350857115 78.17089356871742 54.40585179526343 H 0.0 **** 0.06
24811 C 11.804790249327894 89.40045061132713 16.608511252782137 C 0.0 **** -0.24
24812 H 11.688972854322472 88.75688193852733 17.48043243314919 H 0.0 **** 0.06
24813 H 11.698115109878245 88.80575591771264 15.701314197763736 H 0.0 **** 0.06
24814 H 12.793002245386234 89.8613065956699 16.626861582571394 H 0.0 **** 0.06
24815 H 11.04056913637092 90.1780337085716 16.627366661056726 H 0.0 **** 0.06
24816 C 45.61716208339908 86.58032606464766 59.921594283663524 C 0.0 **** -0.24
24817 H 45.20087154362274 86.88795161900404 58.962330728172994 H 0.0 **** 0.06
24818 H 46.53658885842197 87.1337581603515 60.112872065859904 H 0.0 **** 0.06
24819 H 45.83447125069578 85.51203038576551 59.89643515744767 H 0.0 **** 0.06
24820 H 44.89607538566227 86.78631192013745 60.71300106633221 H 0.0 **** 0.06
24821 C 4.112653891259058 50.94854162344479 74.72750799869748 C 0.0 **** -0.24
24822 H 4.426885101440519 51.43170838264354 75.6530411031218 H 0.0 **** 0.06
24823 H 3.726449369148611 49.95424238855797 74.9501151057288 H 0.0 **** 0.06
24824 H 4.96613448854589 50.865286071186986 74.05416686789569 H 0.0 **** 0.06
24825 H 3.3326872979173885 51.54516116499144 74.25399229681834 H 0.0 **** 0.06
24826 C 100.27271288304505 76.54516326582711 84.44907391202617 C 0.0 **** -0.24
24827 H 100.10834548885302 75.47675176740351 84.5919834454085 H 0.0 **** 0.06
24828 H 99.6161876787946 76.9109916011576 83.65935929995385 H 0.0 **** 0.06
24829 H 101.31128216599262 76.71690053879006 84.16704555353436 H 0.0 **** 0.06
24830 H 100.05602800129714 77.07315693639332 85.37696837832715 H 0.0 **** 0.06
24831 C 59.43041922759657 97.24411969463988 24.987313569863545 C 0.0 **** -0.24
24832 H 58.43746799872472 96.92052787309503 24.676538714140918 H 0.0 **** 0.06
24833 H 59.987085896364235 96.38927749635826 25.37246281674703 H 0.0 **** 0.06
24834 H 59.33790339802485 97.99915544180664 25.768676326716104 H 0.0 **** 0.06
24835 H 59.959293934093225 97.66754393009396 24.13298847781101 H 0.0 **** 0.06
24836 C 72.29026070464548 98.20648187197628 75.04826477396327 C 0.0 **** -0.24
24837 H 72.87220445765877 99.01814443143701 74.61035579193351 H 0.0 **** 0.06
24838 H 71.2315118402903 98.36543011647566 74.84062272164482 H 0.0 **** 0.06
24839 H 72.45098451228975 98.1853247875431 76.1255785808167 H 0.0 **** 0.06
24840 H 72.60771323087596 97.25796126828698 74.61500223769926 H 0.0 **** 0.06
24841 C 50.78733721825938 83.45019887930289 109.33961996402304 C 0.0 **** -0.24
24842 H 50.71251409374145 82.39601952022122 109.60658484045096 H 0.0 **** 0.06
24843 H 50.230164212465695 83.632639597132 108.42012143547966 H 0.0 **** 0.06
24844 H 51.83481959719745 83.71245066758004 109.1882245579136 H 0.0 **** 0.06
24845 H 50.37324018138213 84.058826495479 110.14297286994329 H 0.0 **** 0.06
24846 C 58.9501423230014 41.518151835074434 87.21382521104724 C 0.0 **** -0.24
24847 H 59.474039813458404 41.25082890030279 86.29572784826021 H 0.0 **** 0.06
24848 H 58.358777414107884 42.418508461089516 87.04463183832921 H 0.0 **** 0.06
24849 H 59.67571601530496 41.702608525827884 88.00554446045741 H 0.0 **** 0.06
24850 H 58.29145564170103 40.700044245148774 87.50634994853924 H 0.0 **** 0.06
24851 C 6.305462568508915 74.61045817021483 20.1449308257109 C 0.0 **** -0.24
24852 H 6.611584193213957 75.64125839683265 19.967873539596155 H 0.0 **** 0.06
24853 H 5.586571599004401 74.30862980040888 19.381826391161667 H 0.0 **** 0.06
24854 H 5.845350293796173 74.53131572683435 21.1296815615554 H 0.0 **** 0.06
24855 H 7.179005150354158 73.9589105392289 20.099072517434934 H 0.0 **** 0.06
24856 C 53.756254197378524 43.28656948250159 85.3035568153461 C 0.0 **** -0.24
24857 H 52.900234992244066 43.12259536530101 85.9576228982242 H 0.0 **** 0.06
24858 H 53.74976230785899 44.317212385196726 84.9471890510664 H 0.0 **** 0.06
24859 H 53.69820209984752 42.60775609965904 84.45227410959433 H 0.0 **** 0.06
24860 H 54.676341704004614 43.09743843725775 85.8560704047284 H 0.0 **** 0.06
24861 C 65.37147590978827 3.1157860928579737 5.089846763568815 C 0.0 **** -0.24
24862 H 65.59961859958537 3.0591933494543184 4.025172131779243 H 0.0 **** 0.06
24863 H 66.292463660463 3.006806742247477 5.6642839012983615 H 0.0 **** 0.06
24864 H 64.68113084840309 2.3157450141553255 5.3557222866203205 H 0.0 **** 0.06
24865 H 64.91553364401051 4.079765715790856 5.312406259760294 H 0.0 **** 0.06
24866 C 92.69945584908203 33.68070219029801 42.31267349416396 C 0.0 **** -0.24
24867 H 93.32745289152109 33.89055614189604 43.17899210637385 H 0.0 **** 0.06
24868 H 92.78027529456637 32.62549603462742 42.05380481082657 H 0.0 **** 0.06
24869 H 93.0307312112281 34.28810879937919 41.47036196474296 H 0.0 **** 0.06
24870 H 91.66317742142417 33.919892465245965 42.54848873175252 H 0.0 **** 0.06
24871 C 71.30836022767102 56.67530091295691 2.141453899700579 C 0.0 **** -0.24
24872 H 72.28118591130101 56.88931437679817 2.582126345790982 H 0.0 **** 0.06
24873 H 70.6541431030164 57.53770238059975 2.269143064053594 H 0.0 **** 0.06
24874 H 70.86810055832228 55.809232100026385 2.6369618855195966 H 0.0 **** 0.06
24875 H 71.42924829323209 56.46415252431354 1.0792499335000088 H 0.0 **** 0.06
24876 C 54.938266382602166 62.52486373383172 19.763610329210024 C 0.0 **** -0.24
24877 H 55.89492915033867 62.32749387890911 20.247484653759187 H 0.0 **** 0.06
24878 H 54.1316692304394 62.11753112443505 20.372497019100592 H 0.0 **** 0.06
24879 H 54.925554201379214 62.0547983259531 18.780018035828704 H 0.0 **** 0.06
24880 H 54.80312997017231 63.60081807331795 19.653146422625156 H 0.0 **** 0.06
24881 C 108.11402586710742 104.53717663619963 93.69829164767152 C 0.0 **** -0.24
24882 H 108.80431765380948 105.21079450517547 94.20726034917362 H 0.0 **** 0.06
24883 H 107.47089963078946 104.05333015834368 94.4344996166189 H 0.0 **** 0.06
24884 H 108.6800007827159 103.78039015690007 93.15524148814013 H 0.0 **** 0.06
24885 H 107.5018682480835 105.1065198154309 92.99892461089577 H 0.0 **** 0.06
24886 C 100.03563961555022 8.013762359403021 59.4160437080468 C 0.0 **** -0.24
24887 H 100.56363874615482 7.069902267327748 59.2783994829918 H 0.0 **** 0.06
24888 H 100.52082661499671 8.790894744203676 58.8254899890556 H 0.0 **** 0.06
24889 H 100.05573851953235 8.291031506782181 60.47010572164754 H 0.0 **** 0.06
24890 H 99.00161163071388 7.9020198716115715 59.090254522736075 H 0.0 **** 0.06
24891 C 38.131740058120556 40.53355638606314 66.76149612646624 C 0.0 **** -0.24
24892 H 38.97469691441603 41.148028761777525 66.44466127553943 H 0.0 **** 0.06
24893 H 38.50036524879738 39.5853807836005 67.15261164474511 H 0.0 **** 0.06
24894 H 37.47862150209039 40.34614160937599 65.9088457020675 H 0.0 **** 0.06
24895 H 37.573820530874 41.05579385335932 67.53866128698218 H 0.0 **** 0.06
24896 C 68.76176751663127 32.250288910691694 38.75405506048901 C 0.0 **** -0.24
24897 H 69.80531612407907 31.9706368550585 38.88999171806594 H 0.0 **** 0.06
24898 H 68.64530603024264 33.31859652553703 38.9387371323477 H 0.0 **** 0.06
24899 H 68.14086926836785 31.691180082771695 39.453299292154796 H 0.0 **** 0.06
24900 H 68.45468414384231 32.02275680448301 37.733123711436406 H 0.0 **** 0.06
24901 C 102.57992371375406 65.51700123105087 4.53273510821947 C 0.0 **** -0.24
24902 H 102.46874420303567 65.60455083498346 3.4527161428583497 H 0.0 **** 0.06
24903 H 103.58905203253676 65.81287116401302 4.818993502815829 H 0.0 **** 0.06
24904 H 102.40376953537776 64.48437982663506 4.834232389503626 H 0.0 **** 0.06
24905 H 101.85634148586425 66.16656699519757 5.0262915796856475 H 0.0 **** 0.06
24906 C 99.33901872759073 20.03971189176295 19.078354726697114 C 0.0 **** -0.24
24907 H 99.8761606766481 20.176889409707798 20.01653045077552 H 0.0 **** 0.06
24908 H 100.03656684607328 19.71295111154535 18.305863317902606 H 0.0 **** 0.06
24909 H 98.8812858799742 20.98228240908702 18.78027879799646 H 0.0 **** 0.06
24910 H 98.5638366320636 19.284107906308293 19.210699962985245 H 0.0 **** 0.06
24911 C 44.25515131841502 84.61602201644112 85.86416366281577 C 0.0 **** -0.24
24912 H 43.27291584679264 85.08257026495136 85.78644562874263 H 0.0 **** 0.06
24913 H 44.23555256433653 83.64441037810982 85.37056506682012 H 0.0 **** 0.06
24914 H 44.51359349320268 84.48501854507941 86.91501550923209 H 0.0 **** 0.06
24915 H 44.99880548227958 85.25312523153161 85.38370250561064 H 0.0 **** 0.06
24916 C 51.787748369334906 81.06105600052956 83.60701293878847 C 0.0 **** -0.24
24917 H 52.82835076024304 81.32264967058677 83.41495231661416 H 0.0 **** 0.06
24918 H 51.70064298306323 80.62691602584437 84.60291855028333 H 0.0 **** 0.06
24919 H 51.45293789474243 80.33694210791839 82.8646452047569 H 0.0 **** 0.06
24920 H 51.17112152185899 81.9572886062474 83.5447773162124 H 0.0 **** 0.06
24921 C 91.7471424124016 43.72724727078963 94.42619849267584 C 0.0 **** -0.24
24922 H 91.00671851151145 43.763668934292575 95.22530034695427 H 0.0 **** 0.06
24923 H 91.63255604583304 44.60276948927507 93.78532893820261 H 0.0 **** 0.06
24924 H 91.59987813301873 42.82276496266456 93.83582838840954 H 0.0 **** 0.06
24925 H 92.74738695825992 43.720541521741815 94.85778125426648 H 0.0 **** 0.06
24926 C 69.3318334088323 70.78191897300354 24.09144918731541 C 0.0 **** -0.24
24927 H 69.29474822953091 71.82922937543918 23.792038995810817 H 0.0 **** 0.06
24928 H 70.06460848369568 70.65800431728456 24.889148841110032 H 0.0 **** 0.06
24929 H 69.61920109921482 70.16984520563722 23.236292244267847 H 0.0 **** 0.06
24930 H 68.35006681769306 70.47164791856994 24.447838089060568 H 0.0 **** 0.06
24931 C 9.00702347833581 9.677246352475578 88.42618640757564 C 0.0 **** -0.24
24932 H 8.93065958482714 9.019000754701779 89.29024545296016 H 0.0 **** 0.06
24933 H 8.395365850784756 9.282919208504893 87.61331801351929 H 0.0 **** 0.06
24934 H 10.046906103171096 9.73556771846853 88.10395569471143 H 0.0 **** 0.06
24935 H 8.653552840870887 10.673041274069902 88.69521965236532 H 0.0 **** 0.06
24936 C 40.529899259081624 107.43081391190631 90.50478006154664 C 0.0 **** -0.24
24937 H 40.28452741343629 107.30384783305297 89.45107608885954 H 0.0 **** 0.06
24938 H 41.24509061134483 108.24594485938755 90.61605783204257 H 0.0 **** 0.06
24939 H 40.966753551537224 106.50883008606222 90.88944361973644 H 0.0 **** 0.06
24940 H 39.6222636069022 107.66339288628444 91.06327580158694 H 0.0 **** 0.06
24941 C 64.40262686169228 55.09837958695266 76.45308180455346 C 0.0 **** -0.24
24942 H 63.54022443829864 55.32878584476549 77.07889958807023 H 0.0 **** 0.06
24943 H 65.25209445072632 54.84030748680567 77.0863807285839 H 0.0 **** 0.06
24944 H 64.65266147782962 55.967452202472145 75.8454673804441 H 0.0 **** 0.06
24945 H 64.16471979852749 54.25700514229948 75.80274027549127 H 0.0 **** 0.06
24946 C 33.41803322286633 39.93162017280902 34.230332407075366 C 0.0 **** -0.24
24947 H 33.24158125754562 39.5335950397144 33.2314963256276 H 0.0 **** 0.06
24948 H 32.69089765622144 40.717025819404775 34.44217390063227 H 0.0 **** 0.06
24949 H 34.424807808720686 40.34457844984183 34.28424163810308 H 0.0 **** 0.06
24950 H 33.313433085382826 39.13260865795289 34.963909426643994 H 0.0 **** 0.06
24951 C 76.449890660844 80.06935748572064 86.75673516132431 C 0.0 **** -0.24
24952 H 75.83697433236 80.92032836732552 87.05706013684484 H 0.0 **** 0.06
24953 H 76.60162559831392 79.4128743212376 87.61298873377027 H 0.0 **** 0.06
24954 H 77.41445079280044 80.42700115848554 86.39579521990439 H 0.0 **** 0.06
24955 H 75.94386020998269 79.52101752458697 85.96186765304522 H 0.0 **** 0.06
24956 C 102.85756347762278 71.76758609863215 2.3005165899382467 C 0.0 **** -0.24
24957 H 103.15176723199606 71.6005182967123 3.336086144739193 H 0.0 **** 0.06
24958 H 101.83759130108326 71.41215660980016 2.1509353487230296 H 0.0 **** 0.06
24959 H 103.53178095823405 71.2241893292854 1.639021639347253 H 0.0 **** 0.06
24960 H 102.90780690213438 72.83349465712082 2.075484443061888 H 0.0 **** 0.06
24961 C 33.56352512040955 9.280709480543479 72.39717242233642 C 0.0 **** -0.24
24962 H 32.48892243584376 9.104128608940883 72.35034154001886 H 0.0 **** 0.06
24963 H 33.765666692383206 10.336482472429196 72.2133488721934 H 0.0 **** 0.06
24964 H 34.064641194096744 8.677756240630785 71.63963763394209 H 0.0 **** 0.06
24965 H 33.93469523542965 9.006107989450754 73.38482451506248 H 0.0 **** 0.06
24966 C 28.240033712004788 5.533433681154946 9.368403702522386 C 0.0 **** -0.24
24967 H 28.0584703048782 5.757094040071578 8.316985776802653 H 0.0 **** 0.06
24968 H 27.700258652198414 6.247042849807173 9.98930434189873 H 0.0 **** 0.06
24969 H 29.30784901037893 5.605568862576035 9.574713814383813 H 0.0 **** 0.06
24970 H 27.89537837156746 4.523731933053327 9.589355937382777 H 0.0 **** 0.06
24971 C 77.08918661356654 55.872142655527256 101.05027591507861 C 0.0 **** -0.24
24972 H 76.20942292503162 56.51530142920885 101.06049793226568 H 0.0 **** 0.06
24973 H 76.89558991122988 55.00058815115506 100.42299523768273 H 0.0 **** 0.06
24974 H 77.31299319207355 55.54550122533371 102.06627439004015 H 0.0 **** 0.06
24975 H 77.9392015555157 56.42553056174842 100.65107635583394 H 0.0 **** 0.06
24976 C 16.210389263125364 19.47339664760176 52.398310054046874 C 0.0 **** -0.24
24977 H 16.20106670143349 18.480288103365666 51.94860748968924 H 0.0 **** 0.06
24978 H 16.993556516375577 19.521516160031695 53.15639022179897 H 0.0 **** 0.06
24979 H 15.243294844136187 19.670575866864624 52.86253917931123 H 0.0 **** 0.06
24980 H 16.402510665712214 20.21984896678714 51.62900253566892 H 0.0 **** 0.06
24981 C 102.42863232781062 8.67600495053944 78.61568913096555 C 0.0 **** -0.24
24982 H 103.21879550554456 8.907118955949565 77.90044973492712 H 0.0 **** 0.06
24983 H 101.63843673170646 8.115274376303407 78.11464213296044 H 0.0 **** 0.06
24984 H 102.01899224375069 9.603446435693074 79.01522777838542 H 0.0 **** 0.06
24985 H 102.83848906547703 8.079014502912003 79.42939217484003 H 0.0 **** 0.06
24986 C 11.67445864773262 71.29517648155564 15.259128483683526 C 0.0 **** -0.24
24987 H 11.480610607867646 70.82147669842072 14.296532338412703 H 0.0 **** 0.06
24988 H 10.818416748546952 71.14522843860993 15.916374003283792 H 0.0 **** 0.06
24989 H 11.837729040248206 72.36297970382634 15.111233412606794 H 0.0 **** 0.06
24990 H 12.562139530244409 70.85125590629508 15.710420037956737 H 0.0 **** 0.06
24991 C 54.78362106107057 62.227199321646296 9.788935325153389 C 0.0 **** -0.24
24992 H 54.54246981261889 61.59138064472137 10.64053647948053 H 0.0 **** 0.06
24993 H 53.99379691096453 62.147091404506085 9.041465968700578 H 0.0 **** 0.06
24994 H 55.73043173165113 61.907073216079255 9.353933374946692 H 0.0 **** 0.06
24995 H 54.867111977392796 63.262133384884436 10.120348367497016 H 0.0 **** 0.06
24996 C 51.33111086784054 96.62621319952274 48.70220163511739 C 0.0 **** -0.24
24997 H 51.77543730972695 97.46898260974888 48.17379503223309 H 0.0 **** 0.06
24998 H 50.95766858274522 95.9001271989282 47.97969982139269 H 0.0 **** 0.06
24999 H 50.50621271049923 96.98016717575945 49.32166232305379 H 0.0 **** 0.06
25000 H 52.083872835637074 96.15584774311242 49.33481496105824 H 0.0 **** 0.06
25001 C 56.73202902708388 13.318316036367833 72.78634753083881 C 0.0 **** -0.24
25002 H 56.80490917049799 13.147394306996688 71.71180615746506 H 0.0 **** 0.06
25003 H 57.69085827245475 13.094231619939478 73.25479769998348 H 0.0 **** 0.06
25004 H 55.96179212133188 12.672403994333877 73.20587169619004 H 0.0 **** 0.06
25005 H 56.47226607876821 14.360878944868432 72.97039009362565 H 0.0 **** 0.06
25006 C 14.647205559733148 56.16590703093095 82.57436966641632 C 0.0 **** -0.24
25007 H 14.395390912202942 56.659187189250396 83.51314595967108 H 0.0 **** 0.06
25008 H 15.654743151916843 55.755766986735146 82.63850215408749 H 0.0 **** 0.06
25009 H 14.599256826097356 56.889478502059994 81.76013496767811 H 0.0 **** 0.06
25010 H 13.93777231813959 55.36066850539689 82.38673385678106 H 0.0 **** 0.06
25011 C 100.28184221459318 40.26159934021467 44.24360148385006 C 0.0 **** -0.24
25012 H 100.68561435384453 39.2607737422405 44.395104032558436 H 0.0 **** 0.06
25013 H 99.90872876542281 40.35214852197586 43.22361959828626 H 0.0 **** 0.06
25014 H 101.067745391204 40.99873829305824 44.40921018361817 H 0.0 **** 0.06
25015 H 99.46750597308227 40.43457138943015 44.94633255574047 H 0.0 **** 0.06
25016 C 62.91770427292607 32.290752053922574 99.57353143822743 C 0.0 **** -0.24
25017 H 61.931457961724334 32.711593460722725 99.37959445740066 H 0.0 **** 0.06
25018 H 62.80925003292049 31.281683634590877 99.97406056368341 H 0.0 **** 0.06
25019 H 63.44340259650005 32.91456301256119 100.29650379457011 H 0.0 **** 0.06
25020 H 63.486379474301884 32.252958512621944 98.64386210100493 H 0.0 **** 0.06
25021 C 5.26553943685559 53.52470751570063 80.217044137381 C 0.0 **** -0.24
25022 H 5.772713690383057 54.33491281553596 80.73933469820754 H 0.0 **** 0.06
25023 H 5.345235702931802 52.60836268758047 80.80272371865064 H 0.0 **** 0.06
25024 H 5.73039764659336 53.374633905874504 79.24190635763651 H 0.0 **** 0.06
25025 H 4.214382373830517 53.781099100667305 80.0818365589083 H 0.0 **** 0.06
25026 C 0.9621486514141644 107.59230044782532 94.7911540144575 C 0.0 **** -0.24
25027 H -0.10003168479396951 107.69400622367922 95.01084395290633 H 0.0 **** 0.06
25028 H 1.2047864529795458 108.17028754269542 93.89948329350568 H 0.0 **** 0.06
25029 H 1.1990324175801597 106.54208718188397 94.61945933655824 H 0.0 **** 0.06
25030 H 1.5448074198909136 107.96282084304273 95.63482947485994 H 0.0 **** 0.06
25031 C 30.11991921099721 32.232970856843835 0.08644476851618776 C 0.0 **** -0.24
25032 H 30.068621770666553 33.31998883457203 0.024056039588771227 H 0.0 **** 0.06
25033 H 29.239194840566356 31.857366149662 0.6068662566897416 H 0.0 **** 0.06
25034 H 31.017103424245747 31.941681610701252 0.6325170348258666 H 0.0 **** 0.06
25035 H 30.15520201202 31.813569822183098 -0.9194711346863613 H 0.0 **** 0.06
25036 C 69.9431284174551 21.56075631824341 31.929401367043113 C 0.0 **** -0.24
25037 H 70.46878066669542 20.668670677706192 32.26852485200888 H 0.0 **** 0.06
25038 H 68.93965329919867 21.288166072625845 31.600997410575644 H 0.0 **** 0.06
25039 H 70.48699379184897 22.00893146040177 31.098013763336155 H 0.0 **** 0.06
25040 H 69.87623838883448 22.276196542741626 32.74829257689959 H 0.0 **** 0.06
25041 C 90.69542030110017 61.93905893283301 87.65778123899466 C 0.0 **** -0.24
25042 H 91.09691627709984 61.30079706385777 88.44477972904428 H 0.0 **** 0.06
25043 H 89.70892497209346 62.30084882827393 87.9512620807121 H 0.0 **** 0.06
25044 H 90.61299420374297 61.36796968543683 86.73253753141267 H 0.0 **** 0.06
25045 H 91.36212894315109 62.787235315110564 87.50287396204186 H 0.0 **** 0.06
25046 C 1.5434515603114676 28.59113645990908 78.2178225077646 C 0.0 **** -0.24
25047 H 1.5570972511323617 29.1824419731644 77.30236719057942 H 0.0 **** 0.06
25048 H 1.8692407759772323 29.209507775429017 79.05407913928573 H 0.0 **** 0.06
25049 H 2.215505574085782 27.74041894294311 78.11088370128653 H 0.0 **** 0.06
25050 H 0.5308371739324116 28.233628227235727 78.40316760256673 H 0.0 **** 0.06
25051 C 34.674496629337554 101.78419209472908 13.173685966109208 C 0.0 **** -0.24
25052 H 33.89410436371941 102.50830327028459 13.407214914521873 H 0.0 **** 0.06
25053 H 35.63286927902374 102.14939173731236 13.543981782446359 H 0.0 **** 0.06
25054 H 34.730202821291584 101.64630038693706 12.093241784984741 H 0.0 **** 0.06
25055 H 34.44019252845577 100.83163487747905 13.649736634018701 H 0.0 **** 0.06
25056 C 52.211524775776184 84.8531266314903 100.86021140164992 C 0.0 **** -0.24
25057 H 52.88722515889265 84.05272148630968 100.56044914862423 H 0.0 **** 0.06
25058 H 52.20493634299464 85.62869698616649 100.09304767763315 H 0.0 **** 0.06
25059 H 52.54810562810101 85.27870888775563 101.80530447210586 H 0.0 **** 0.06
25060 H 51.20567417880369 84.45216739205928 100.98033246668199 H 0.0 **** 0.06
25061 C 52.26350079071738 88.925167774655 96.89760247139662 C 0.0 **** -0.24
25062 H 51.710843265606165 88.54632548902958 96.03888426441306 H 0.0 **** 0.06
25063 H 52.86253200604761 89.78468195486641 96.59332473029664 H 0.0 **** 0.06
25064 H 52.918181625524845 88.14343536541026 97.28301953893585 H 0.0 **** 0.06
25065 H 51.56275548603098 89.22789214234433 97.67555030249673 H 0.0 **** 0.06
25066 C 47.610726529110984 96.93629922862446 18.206764955867044 C 0.0 **** -0.24
25067 H 48.58488202694203 96.5031874293318 17.980313888469695 H 0.0 **** 0.06
25068 H 46.844650687143506 96.43898539772604 17.6129286497395 H 0.0 **** 0.06
25069 H 47.62193870592335 98.00026529217517 17.96843869216734 H 0.0 **** 0.06
25070 H 47.39291271474665 96.80478597072002 19.2666848924126 H 0.0 **** 0.06
25071 C 4.6969526653476805 39.911913761252194 42.48434914727375 C 0.0 **** -0.24
25072 H 5.124957096219134 39.83804844240009 41.4851334877236 H 0.0 **** 0.06
25073 H 4.1880045304124 40.86993291637501 42.59156840259732 H 0.0 **** 0.06
25074 H 5.492162522155127 39.83657966515844 43.22664488835517 H 0.0 **** 0.06
25075 H 3.9822114231496926 39.10176750750643 42.63392835732168 H 0.0 **** 0.06
25076 C 29.590075365371604 8.942773729884777 42.35487668068626 C 0.0 **** -0.24
25077 H 29.387504280111216 8.304475745372685 43.214249385711625 H 0.0 **** 0.06
25078 H 29.241430531296572 8.45085541132974 41.4466718446115 H 0.0 **** 0.06
25079 H 30.662919319047603 9.12194426685383 42.28146243092024 H 0.0 **** 0.06
25080 H 29.071138718915876 9.892495885646781 42.47719329574494 H 0.0 **** 0.06
25081 C 94.27116922067756 15.127743218664847 11.90506257835866 C 0.0 **** -0.24
25082 H 94.83233001095618 15.526079504742057 11.059528632430428 H 0.0 **** 0.06
25083 H 94.67923620113874 15.529329451110357 12.833403989308504 H 0.0 **** 0.06
25084 H 94.35156804160533 14.040249480592635 11.912764218731159 H 0.0 **** 0.06
25085 H 93.22386569336055 15.413593782421842 11.813271594993072 H 0.0 **** 0.06
25086 C 79.46875759885194 19.23557424186845 47.74785398596924 C 0.0 **** -0.24
25087 H 79.47326048847938 19.894564740263434 46.88015814935568 H 0.0 **** 0.06
25088 H 78.56943280221331 18.618432194107953 47.7302029677478 H 0.0 **** 0.06
25089 H 79.48156584782778 19.834189037241913 48.65831326897916 H 0.0 **** 0.06
25090 H 80.34940748160192 18.59411157394777 47.721278164291675 H 0.0 **** 0.06
25091 C 21.528189653607598 25.782805467244977 90.37373413287558 C 0.0 **** -0.24
25092 H 22.09589192348986 25.488888883551198 91.25606059846024 H 0.0 **** 0.06
25093 H 20.725948155088275 26.46012034030124 90.66824058882466 H 0.0 **** 0.06
25094 H 21.102070728550927 24.89630528722355 89.90383205365595 H 0.0 **** 0.06
25095 H 22.188659061830947 26.286911012364357 89.66879258707112 H 0.0 **** 0.06
25096 C 16.219042871537052 5.385757801293497 47.40206919667941 C 0.0 **** -0.24
25097 H 15.996570697434294 4.4107733358896795 46.96794788936054 H 0.0 **** 0.06
25098 H 17.134980777363165 5.3202610050513695 47.98998145531482 H 0.0 **** 0.06
25099 H 15.394498787871402 5.692754488215044 48.04495559252975 H 0.0 **** 0.06
25100 H 16.34970590497432 6.117107067405 46.604873954351355 H 0.0 **** 0.06
25101 C 8.1402333947631 96.16999955712237 81.40776723839053 C 0.0 **** -0.24
25102 H 8.44009668026873 95.13118193891 81.54202735554526 H 0.0 **** 0.06
25103 H 8.874825384937637 96.82424030502415 81.87720681010228 H 0.0 **** 0.06
25104 H 7.165206331538027 96.32945908262292 81.86842194553265 H 0.0 **** 0.06
25105 H 8.080144922938256 96.39617911202504 80.34275264061284 H 0.0 **** 0.06
25106 C 59.732332035690916 91.36006517698445 69.35459407747163 C 0.0 **** -0.24
25107 H 59.762336910965644 91.52885267914309 70.43087068363737 H 0.0 **** 0.06
25108 H 58.89893257795972 91.91454460204159 68.92260588341027 H 0.0 **** 0.06
25109 H 59.60242575529779 90.29579385747172 69.15789179745326 H 0.0 **** 0.06
25110 H 60.66626953155769 91.70053086547159 68.90852605119451 H 0.0 **** 0.06
25111 C 30.89018664301595 67.78483767635973 54.541058800631816 C 0.0 **** -0.24
25112 H 31.14648278848869 67.94531559474571 53.494548927962114 H 0.0 **** 0.06
25113 H 31.34154396362114 66.85450375598008 54.8871632287364 H 0.0 **** 0.06
25114 H 29.806345772514376 67.72287923268713 54.64437403463833 H 0.0 **** 0.06
25115 H 31.26507758852543 68.61598365607603 55.13908308623968 H 0.0 **** 0.06
25116 C 79.74959377577147 32.43563218256527 78.71815232912718 C 0.0 **** -0.24
25117 H 79.71012254272506 32.83540670783029 79.73160298493053 H 0.0 **** 0.06
25118 H 79.3547017232944 31.419440790519943 78.71205227282036 H 0.0 **** 0.06
25119 H 80.78364771047822 32.425778278799044 78.37281155552758 H 0.0 **** 0.06
25120 H 79.15182166922023 33.06304083215696 78.05715478912258 H 0.0 **** 0.06
25121 C 74.57101918905785 41.43703467310872 30.12175587262513 C 0.0 **** -0.24
25122 H 74.09791762739975 40.97332432319559 30.987665518194945 H 0.0 **** 0.06
25123 H 74.0341132476261 42.34901255444692 29.860043749691016 H 0.0 **** 0.06
25124 H 74.54426230559157 40.7455569543753 29.279395787427177 H 0.0 **** 0.06
25125 H 75.60566772277464 41.67978581501693 30.36047762372013 H 0.0 **** 0.06
25126 C 59.40549903867117 54.673545681205155 100.21457983750304 C 0.0 **** -0.24
25127 H 58.39752351731545 54.94463335978196 100.52831487507007 H 0.0 **** 0.06
25128 H 59.36565007284207 53.77395592954014 99.600148217633 H 0.0 **** 0.06
25129 H 60.02108395327136 54.48586130816564 101.0952493180323 H 0.0 **** 0.06
25130 H 59.83875195975452 55.490183100159115 99.63654858704706 H 0.0 **** 0.06
25131 C 2.354639894940078 46.600904704896664 52.61543788451036 C 0.0 **** -0.24
25132 H 1.9098719495798946 45.60680372968102 52.65439379478107 H 0.0 **** 0.06
25133 H 1.591250216194311 47.34903974123944 52.82849660244625 H 0.0 **** 0.06
25134 H 2.767226424041098 46.7750317939678 51.621637109497215 H 0.0 **** 0.06
25135 H 3.150210989944668 46.672743554698286 53.35722403131632 H 0.0 **** 0.06
25136 C 97.00541294588106 71.14357854798078 109.50083322459847 C 0.0 **** -0.24
25137 H 98.0259689946974 71.16681313418925 109.11925446802184 H 0.0 **** 0.06
25138 H 96.32527462441931 71.53136032492054 108.74135241292907 H 0.0 **** 0.06
25139 H 96.93812963497726 71.75982531025915 110.39786822381322 H 0.0 **** 0.06
25140 H 96.73096699701338 70.11727009937289 109.7433187281263 H 0.0 **** 0.06
25141 C 92.78407379788382 81.07635609504422 47.74068194344264 C 0.0 **** -0.24
25142 H 92.98679015507616 80.24868512881147 47.06033809065741 H 0.0 **** 0.06
25143 H 93.64676147848911 81.74129445369891 47.77071138307696 H 0.0 **** 0.06
25144 H 92.59112487219835 80.68500970395473 48.73917658110321 H 0.0 **** 0.06
25145 H 91.91102939394645 81.62754423399579 47.390986393799665 H 0.0 **** 0.06
25146 C 8.689314580971455 15.481392468559022 27.13389466840954 C 0.0 **** -0.24
25147 H 8.729446619744763 14.519247017896987 26.62331224517368 H 0.0 **** 0.06
25148 H 9.43465160171219 16.151031810455663 26.704910130043828 H 0.0 **** 0.06
25149 H 8.895299742089492 15.338741703664368 28.19474986139457 H 0.0 **** 0.06
25150 H 7.696737222673889 15.915422223043564 27.011394677010856 H 0.0 **** 0.06
25151 C 62.056795584474614 31.935634899725187 94.20600272882743 C 0.0 **** -0.24
25152 H 62.847169583682614 31.20389543817039 94.04079337169492 H 0.0 **** 0.06
25153 H 61.846229679037464 32.00795167987228 95.27357389940266 H 0.0 **** 0.06
25154 H 61.15599305258516 31.62406148541774 93.67775975189204 H 0.0 **** 0.06
25155 H 62.378305631939114 32.90790757254018 93.8322073069213 H 0.0 **** 0.06
25156 C 28.2157771585195 46.875296507179335 29.46052517104406 C 0.0 **** -0.24
25157 H 27.704716181939602 46.42983161183784 28.606817032812195 H 0.0 **** 0.06
25158 H 28.777080165480953 47.75036183808349 29.131234235299488 H 0.0 **** 0.06
25159 H 28.900416530922854 46.14675704975749 29.89489834695381 H 0.0 **** 0.06
25160 H 27.48155633819283 47.17468645754056 30.208550782639158 H 0.0 **** 0.06
25161 C 21.359288259288093 76.20939682729518 73.45797293254239 C 0.0 **** -0.24
25162 H 21.471010630462473 77.21750058634547 73.85843621026402 H 0.0 **** 0.06
25163 H 20.846738381302714 75.58352740527415 74.18830706010995 H 0.0 **** 0.06
25164 H 22.343077151855226 75.79203625598751 73.24739670878083 H 0.0 **** 0.06
25165 H 20.776409868468704 76.24728904863406 72.53833726257999 H 0.0 **** 0.06
25166 C 68.17576937134811 101.48740104889362 56.02528164102472 C 0.0 **** -0.24
25167 H 67.43396050376901 102.2853990496618 56.06492612803598 H 0.0 **** 0.06
25168 H 68.91024812952956 101.63555521236736 56.8175620277658 H 0.0 **** 0.06
25169 H 68.6761642836992 101.5044288790088 55.05810029813148 H 0.0 **** 0.06
25170 H 67.68137470086016 100.5256882976289 56.163003702490386 H 0.0 **** 0.06
25171 C 108.64756031049772 108.1430833545895 68.53374345177218 C 0.0 **** -0.24
25172 H 107.57534888583372 108.01682443701162 68.68307261420388 H 0.0 **** 0.06
25173 H 108.94794089931325 109.13310866269119 68.87755048814947 H 0.0 **** 0.06
25174 H 108.88036760585142 108.03981392961117 67.47418079463492 H 0.0 **** 0.06
25175 H 109.18544021700369 107.38175872828413 69.10008518667657 H 0.0 **** 0.06
25176 C 94.93640271263392 37.02615897682631 1.5371222864757783 C 0.0 **** -0.24
25177 H 94.52249160198245 37.028196769698354 0.5286639017457162 H 0.0 **** 0.06
25178 H 95.28241724772356 38.0288088795898 1.7891381574904983 H 0.0 **** 0.06
25179 H 95.77490306028179 36.33036020275989 1.5838679901403054 H 0.0 **** 0.06
25180 H 94.1677358946894 36.71689125084984 2.244559636017442 H 0.0 **** 0.06
25181 C 82.57003352680864 53.63233174264404 91.14219096814145 C 0.0 **** -0.24
25182 H 81.58482026730915 53.216765510749255 90.93206630671094 H 0.0 **** 0.06
25183 H 82.47571858123305 54.69404806652056 91.3671597101244 H 0.0 **** 0.06
25184 H 83.21346889270652 53.50006564744314 90.27228782418709 H 0.0 **** 0.06
25185 H 83.00641857416544 53.11627325477867 91.99768183084167 H 0.0 **** 0.06
25186 C 102.61184484556442 53.45614719731737 18.495977924812024 C 0.0 **** -0.24
25187 H 102.45226891589236 52.386394524854275 18.63585168946933 H 0.0 **** 0.06
25188 H 101.95047028935072 53.82225120127254 17.710181221612874 H 0.0 **** 0.06
25189 H 103.64805033335304 53.63415297896062 18.21168599856723 H 0.0 **** 0.06
25190 H 102.39513750487816 53.97930401407107 19.427035768471413 H 0.0 **** 0.06
25191 C 71.78423079798614 2.996191757227196 19.91424555028766 C 0.0 **** -0.24
25192 H 71.9716061782172 4.053918035781249 20.10096856022534 H 0.0 **** 0.06
25193 H 72.7290829083405 2.4886263954262278 19.718782562118975 H 0.0 **** 0.06
25194 H 71.12897211716455 2.8908513368313047 19.048932094869485 H 0.0 **** 0.06
25195 H 71.30685581987075 2.5528524531954817 20.787498206061343 H 0.0 **** 0.06
25196 C 52.1223694651581 2.4531780233452025 6.928860844932558 C 0.0 **** -0.24
25197 H 52.411510355963514 1.6256348844187158 7.577211672662884 H 0.0 **** 0.06
25198 H 51.63358164595547 2.061902170061316 6.036992298039763 H 0.0 **** 0.06
25199 H 53.01077510687463 3.0157928822866324 6.640443017268808 H 0.0 **** 0.06
25200 H 51.43447956486909 3.1089852691936386 7.463052038356182 H 0.0 **** 0.06
25201 C 51.87868298155428 84.88724939642935 72.03473013267106 C 0.0 **** -0.24
25202 H 52.65472970659923 85.28479491210629 71.38029225899982 H 0.0 **** 0.06
25203 H 52.33048008087593 84.5381741466166 72.96350122314026 H 0.0 **** 0.06
25204 H 51.37654787420112 84.05514060460098 71.5391494055957 H 0.0 **** 0.06
25205 H 51.15267474562353 85.66941859276767 72.25431884621557 H 0.0 **** 0.06
25206 C 40.591110842888014 0.8627001185057281 0.0887451224357676 C 0.0 **** -0.24
25207 H 40.16631975702475 1.7228968951891517 -0.426869859936545 H 0.0 **** 0.06
25208 H 40.04403559110021 -0.03724629972442983 -0.19445982244977245 H 0.0 **** 0.06
25209 H 40.514324265268854 1.0108416133404887 1.1663896996159906 H 0.0 **** 0.06
25210 H 41.63905289551951 0.7536082118048455 -0.18907718092899017 H 0.0 **** 0.06
25211 C 4.504446247435254 30.238643176410733 43.059266818080175 C 0.0 **** -0.24
25212 H 4.7117361124754495 31.10853264438191 42.435412566860634 H 0.0 **** 0.06
25213 H 3.7858333162267 29.59259293736062 42.552978849962784 H 0.0 **** 0.06
25214 H 4.090950413207821 30.56562743836986 44.01319204542317 H 0.0 **** 0.06
25215 H 5.429264646089507 29.68776410928706 43.2323219425097 H 0.0 **** 0.06
25216 C 48.291763786461985 5.727668531680489 33.14778127439341 C 0.0 **** -0.24
25217 H 47.82872473233914 6.07396497956006 34.07159372868233 H 0.0 **** 0.06
25218 H 49.15605996316566 6.352794691732958 32.91837033066754 H 0.0 **** 0.06
25219 H 47.56986224774013 5.791489363404928 32.33331276271578 H 0.0 **** 0.06
25220 H 48.612973726202824 4.693438170786651 33.26913435603342 H 0.0 **** 0.06
25221 C 22.819215210123872 104.2510459191198 10.467996287843931 C 0.0 **** -0.24
25222 H 22.92378569351814 103.26645372414123 10.011461381695682 H 0.0 **** 0.06
25223 H 23.740900920338788 104.50804517480859 10.991069657297516 H 0.0 **** 0.06
25224 H 21.991180851000962 104.23584371210842 11.176491060713715 H 0.0 **** 0.06
25225 H 22.62112434402863 104.99178700517459 9.693837083428036 H 0.0 **** 0.06
25226 C 106.60427990564345 58.310111665092336 80.00934258568128 C 0.0 **** -0.24
25227 H 107.46052641937148 58.891676260089405 80.35089988637083 H 0.0 **** 0.06
25228 H 106.9139437096845 57.64593266756381 79.20289456166813 H 0.0 **** 0.06
25229 H 105.82741079763699 58.98406802145603 79.64776534521839 H 0.0 **** 0.06
25230 H 106.21368940477878 57.71894557713678 80.8376997465334 H 0.0 **** 0.06
25231 C 37.661902811948266 98.21194101391333 35.36706302029917 C 0.0 **** -0.24
25232 H 38.08498285577389 99.21056170735567 35.251179768340236 H 0.0 **** 0.06
25233 H 38.44472187565117 97.51952120106466 35.67531281884858 H 0.0 **** 0.06
25234 H 37.23950629133833 97.88494042017165 34.41730956882008 H 0.0 **** 0.06
25235 H 36.87778540405054 98.23549169578997 36.124216338824795 H 0.0 **** 0.06
25236 C 100.77183689130521 96.54775024196678 78.20562184964929 C 0.0 **** -0.24
25237 H 100.2779446109782 96.19774962343081 77.29949502865117 H 0.0 **** 0.06
25238 H 100.24679389694167 96.15696199584644 79.07869652575656 H 0.0 **** 0.06
25239 H 100.75579568973559 97.63704431722564 78.23013566140824 H 0.0 **** 0.06
25240 H 101.80345929567387 96.19864488129701 78.21533944769911 H 0.0 **** 0.06
25241 C 62.641180918176644 35.56161664354154 78.80573789696768 C 0.0 **** -0.24
25242 H 61.96366615927985 35.68027738779302 77.9603094669032 H 0.0 **** 0.06
25243 H 63.601030215995934 36.02271815273328 78.56882507827532 H 0.0 **** 0.06
25244 H 62.78802931928135 34.50036572899184 79.00697884052107 H 0.0 **** 0.06
25245 H 62.21271259853796 36.04342461529498 79.684517069756 H 0.0 **** 0.06
25246 C 33.30385241901226 82.28401592395556 35.372124503340046 C 0.0 **** -0.24
25247 H 33.47956117313589 83.02963175618032 34.59733854669889 H 0.0 **** 0.06
25248 H 33.245683568062105 81.29502686521315 34.917069657900015 H 0.0 **** 0.06
25249 H 32.36656370140065 82.50414405061775 35.883149288975574 H 0.0 **** 0.06
25250 H 34.12315164913289 82.30651341505308 36.0898273916805 H 0.0 **** 0.06
25251 C 74.66017255341463 62.47682899061361 27.05113074645709 C 0.0 **** -0.24
25252 H 75.06594185629505 61.52661474732383 26.703910313904828 H 0.0 **** 0.06
25253 H 75.16595225387228 63.29667827110009 26.540132738736247 H 0.0 **** 0.06
25254 H 74.81572873204395 62.56792974395593 28.12585246052663 H 0.0 **** 0.06
25255 H 73.59215953599532 62.51670095321836 26.833729380236974 H 0.0 **** 0.06
25256 C 77.58459642633014 49.10458779519654 69.1670530491585 C 0.0 **** -0.24
25257 H 77.80473004900671 48.774575089445996 70.1823720494472 H 0.0 **** 0.06
25258 H 78.22236425130811 49.952604979334076 68.9147675148287 H 0.0 **** 0.06
25259 H 76.5383723870811 49.40283976832231 69.10141105849232 H 0.0 **** 0.06
25260 H 77.77455196209291 48.2873658298772 68.47084543372453 H 0.0 **** 0.06
25261 C 90.11068364978951 12.499187373276229 67.64768639594922 C 0.0 **** -0.24
25262 H 89.77505634044599 11.762508043048427 68.37813405066305 H 0.0 **** 0.06
25263 H 89.43517266768725 12.496600772233933 66.79224377019796 H 0.0 **** 0.06
25264 H 91.1185309522931 12.24846730675597 67.31673756537197 H 0.0 **** 0.06
25265 H 90.11391811669785 13.488537004220902 68.10599496811864 H 0.0 **** 0.06
25266 C 83.88885055010627 29.636730797532515 61.49847597485082 C 0.0 **** -0.24
25267 H 83.81487659893475 29.355230023393062 62.548585968853146 H 0.0 **** 0.06
25268 H 83.90490247514137 28.737901756150492 60.88265171571335 H 0.0 **** 0.06
25269 H 84.80518386980108 30.204995554364096 61.338225280368846 H 0.0 **** 0.06
25270 H 83.02865739193348 30.249098456748477 61.225297432923185 H 0.0 **** 0.06
25271 C 73.73127599836089 49.32376698082379 18.841822018539915 C 0.0 **** -0.24
25272 H 74.70627614292572 49.74711014724886 18.600210448586267 H 0.0 **** 0.06
25273 H 73.18448076620238 50.01531732346194 19.48303413224295 H 0.0 **** 0.06
25274 H 73.86686120225066 48.37510583017152 19.362306017967853 H 0.0 **** 0.06
25275 H 73.16892689173564 49.1575737544639 17.9237179442689 H 0.0 **** 0.06
25276 C 15.401559743620254 86.04488111402988 13.013449003004865 C 0.0 **** -0.24
25277 H 15.739784615188995 85.50687002597653 13.899479424785397 H 0.0 **** 0.06
25278 H 14.324276803370594 86.20528282572982 13.075462876194962 H 0.0 **** 0.06
25279 H 15.631720319051624 85.46014909728262 12.123251607196352 H 0.0 **** 0.06
25280 H 15.90995569915097 87.00759393750278 12.957749368876762 H 0.0 **** 0.06
25281 C 73.04925890510947 27.58462145530892 28.10819925617062 C 0.0 **** -0.24
25282 H 73.86140591128805 27.042564015125905 28.592317856560726 H 0.0 **** 0.06
25283 H 73.15825196360666 27.510961000406155 27.0252576089471 H 0.0 **** 0.06
25284 H 73.08179722119843 28.632561289262185 28.406551787721156 H 0.0 **** 0.06
25285 H 72.09471772296882 27.151081582726523 28.407949512369868 H 0.0 **** 0.06
25286 C 8.087009415751739 32.52439332405129 72.30113664844947 C 0.0 **** -0.24
25287 H 9.109198483026338 32.66070584330171 72.65561982306048 H 0.0 **** 0.06
25288 H 7.5360684946704914 33.45899758505951 72.41525472897132 H 0.0 **** 0.06
25289 H 7.601461568538751 31.7433224813509 72.88534161384533 H 0.0 **** 0.06
25290 H 8.101561422953012 32.23683697193053 71.25049713869518 H 0.0 **** 0.06
25291 C 79.49598157609121 46.176095677874294 75.48816338155417 C 0.0 **** -0.24
25292 H 78.71284242433956 45.53968013341537 75.07658936830077 H 0.0 **** 0.06
25293 H 80.2114888106387 46.42361439013642 74.70397414992075 H 0.0 **** 0.06
25294 H 80.00739577146372 45.64736360213063 76.29290421329782 H 0.0 **** 0.06
25295 H 79.05243090617905 47.09156678398132 75.87972477205858 H 0.0 **** 0.06
25296 C 39.8093936899549 91.66513433124744 57.40953953955034 C 0.0 **** -0.24
25297 H 40.71829676988489 91.28641400704043 57.87718361010161 H 0.0 **** 0.06
25298 H 39.491772636678405 90.97778675385916 56.62478601742259 H 0.0 **** 0.06
25299 H 40.00579461617059 92.64569250306891 56.97627265228627 H 0.0 **** 0.06
25300 H 39.02321867800595 91.74979401977376 58.15985511081146 H 0.0 **** 0.06
25301 C 86.50059934663258 14.646546632917506 95.73075841424458 C 0.0 **** -0.24
25302 H 86.9076989850906 15.409928146327445 96.39456897712125 H 0.0 **** 0.06
25303 H 86.99656689572578 13.695006964049014 95.92440849105475 H 0.0 **** 0.06
25304 H 86.66821479219232 14.941215428122888 94.69448467587677 H 0.0 **** 0.06
25305 H 85.42997199094128 14.542854749831776 95.91059718402758 H 0.0 **** 0.06
25306 C 34.69179293453152 40.09951656888717 76.43704928766371 C 0.0 **** -0.24
25307 H 35.56020687767153 40.75481177571771 76.50000363325941 H 0.0 **** 0.06
25308 H 34.31909430293584 40.08864478651407 75.41289969512675 H 0.0 **** 0.06
25309 H 33.911664779905465 40.46623336501216 77.10459385290181 H 0.0 **** 0.06
25310 H 34.97629693671702 39.090285102374764 76.73186125987758 H 0.0 **** 0.06
25311 C 50.6390460107699 31.326827379086808 104.65772388962166 C 0.0 **** -0.24
25312 H 50.19217387943104 32.31270338197197 104.52990111125301 H 0.0 **** 0.06
25313 H 51.3902442573866 31.165759671329795 103.8840687436504 H 0.0 **** 0.06
25314 H 49.865199937228056 30.56464124198544 104.57862074703787 H 0.0 **** 0.06
25315 H 51.11086558319306 31.266187097432933 105.63919064058851 H 0.0 **** 0.06
25316 C 42.95891899188794 35.13744578181581 67.32170996311591 C 0.0 **** -0.24
25317 H 43.98495067272543 34.77071227933533 67.29207228573733 H 0.0 **** 0.06
25318 H 42.27294543708814 34.29228582142403 67.38030003036994 H 0.0 **** 0.06
25319 H 42.75257762733793 35.71205087417161 66.41836278389603 H 0.0 **** 0.06
25320 H 42.8257909326386 35.77572730506208 68.19528794377837 H 0.0 **** 0.06
25321 C 34.414598609949394 29.411931979995877 37.59494141994526 C 0.0 **** -0.24
25322 H 35.39242824242075 28.995259442909052 37.35252629809281 H 0.0 **** 0.06
25323 H 34.30086178301758 29.468668159903586 38.67758855184326 H 0.0 **** 0.06
25324 H 33.634656501630445 28.773181419284647 37.18047442268943 H 0.0 **** 0.06
25325 H 34.330486758507504 30.410995038695653 37.167486094244566 H 0.0 **** 0.06
25326 C 16.327665436307743 4.01679971069359 42.2171754392549 C 0.0 **** -0.24
25327 H 15.804550643598219 4.434374700315502 43.07672639339336 H 0.0 **** 0.06
25328 H 17.227801768342736 3.502527250781128 42.555529305312206 H 0.0 **** 0.06
25329 H 16.602859353556827 4.819988236765425 41.53369291764557 H 0.0 **** 0.06
25330 H 15.676203191803424 3.309390021741848 41.70352052829463 H 0.0 **** 0.06
25331 C 28.079767308615317 17.459183302035512 68.10845890046517 C 0.0 **** -0.24
25332 H 28.870061637521417 18.082652811180452 68.52490630302282 H 0.0 **** 0.06
25333 H 28.406470232988227 17.047315219980987 67.15335169697198 H 0.0 **** 0.06
25334 H 27.184246415831694 18.062160114145826 67.9565570135021 H 0.0 **** 0.06
25335 H 27.857214003056527 16.645287927396254 68.79840904571279 H 0.0 **** 0.06
25336 C 2.2528279148770496 45.20146178703388 16.34287544039512 C 0.0 **** -0.24
25337 H 3.176927162861535 45.16878754712218 15.766101813175453 H 0.0 **** 0.06
25338 H 2.229597373889246 46.11326877257878 16.939160771387122 H 0.0 **** 0.06
25339 H 2.2046205401230745 44.33423167247403 17.001024978502244 H 0.0 **** 0.06
25340 H 1.4001729792606357 45.18987365217916 15.663510907627227 H 0.0 **** 0.06
25341 C 25.063641860743815 36.02985968548049 62.223763855205846 C 0.0 **** -0.24
25342 H 24.596661239591313 36.34866776082484 63.15521344295769 H 0.0 **** 0.06
25343 H 25.640720301340778 36.85437244781215 61.80607138207495 H 0.0 **** 0.06
25344 H 24.291605769444516 35.73052240733804 61.51448086385972 H 0.0 **** 0.06
25345 H 25.724522552951726 35.18494775275167 62.419149205797225 H 0.0 **** 0.06
25346 C 76.67888058044957 40.78315463849128 64.8584973109283 C 0.0 **** -0.24
25347 H 75.62127880166639 40.51759851732572 64.87222113016895 H 0.0 **** 0.06
25348 H 76.91998863945804 41.3588274850178 65.75221065903452 H 0.0 **** 0.06
25349 H 76.89155339270917 41.38141941949266 63.97225726820545 H 0.0 **** 0.06
25350 H 77.28155973168799 39.87546343782401 64.83619564146966 H 0.0 **** 0.06
25351 C 11.005739308043871 7.999123992349652 101.67539522717472 C 0.0 **** -0.24
25352 H 11.070179307213124 7.035116619186098 102.180518142476 H 0.0 **** 0.06
25353 H 10.417061935966984 7.893941651150456 100.76404705392885 H 0.0 **** 0.06
25354 H 12.009461183478152 8.343477253752653 101.4224462472075 H 0.0 **** 0.06
25355 H 10.529228793513624 8.723966326107728 102.33564457265315 H 0.0 **** 0.06
25356 C 82.17981624659387 31.310470663357222 83.10535332387362 C 0.0 **** -0.24
25357 H 82.97283772802837 31.096515348785942 83.82127222428014 H 0.0 **** 0.06
25358 H 82.62042339180744 31.54447312619635 82.13500535976536 H 0.0 **** 0.06
25359 H 81.59575131616566 32.16160649309063 83.45350092725661 H 0.0 **** 0.06
25360 H 81.53203128084351 30.439217259370878 83.00943670446927 H 0.0 **** 0.06
25361 C 17.88984326863124 59.886919849375715 10.139657793051782 C 0.0 **** -0.24
25362 H 18.881662329418617 59.939587285431514 10.587856318733785 H 0.0 **** 0.06
25363 H 17.833849041065633 59.019408743565435 9.481311347737446 H 0.0 **** 0.06
25364 H 17.703572387035592 60.79260070759807 9.56260216541395 H 0.0 **** 0.06
25365 H 17.139870307792563 59.796756932296375 10.92532188002238 H 0.0 **** 0.06
25366 C 45.8599069985097 73.21395143647341 48.05411431324643 C 0.0 **** -0.24
25367 H 45.446721302375636 73.69834721779819 48.93872618341163 H 0.0 **** 0.06
25368 H 46.84582600779328 73.62687171328314 47.840216148581646 H 0.0 **** 0.06
25369 H 45.19997712434167 73.38669424856039 47.20366891801194 H 0.0 **** 0.06
25370 H 45.94715447332703 72.14193510727416 48.234925822348714 H 0.0 **** 0.06
25371 C 64.71410502716436 90.596195963301 36.80784500381256 C 0.0 **** -0.24
25372 H 64.50624263572767 89.70065170256372 37.39305141639781 H 0.0 **** 0.06
25373 H 64.73248632232821 90.34143059977978 35.74759943633063 H 0.0 **** 0.06
25374 H 65.68169121817454 91.00467385293734 37.10076594620435 H 0.0 **** 0.06
25375 H 63.9369308785614 91.33787401928953 36.9902945344722 H 0.0 **** 0.06
25376 C 102.34309159588815 101.6135324060557 34.69868511698044 C 0.0 **** -0.24
25377 H 102.59433182148452 101.9231853126077 33.683871672541585 H 0.0 **** 0.06
25378 H 102.65854490917552 102.38393800896654 35.401799078514415 H 0.0 **** 0.06
25379 H 102.85305042510745 100.67858867268242 34.929063130495166 H 0.0 **** 0.06
25380 H 101.26517084583625 101.46941737755134 34.77663132258107 H 0.0 **** 0.06
25381 C 38.5345620780102 105.18394552137924 25.983454758386102 C 0.0 **** -0.24
25382 H 38.24985662806151 106.23577081862408 26.00184485933238 H 0.0 **** 0.06
25383 H 39.62226483661166 105.10189694285062 25.996672066338164 H 0.0 **** 0.06
25384 H 38.14575806403832 104.71822921034395 25.078292019491926 H 0.0 **** 0.06
25385 H 38.12150034462226 104.68045809043642 26.85763568073429 H 0.0 **** 0.06
25386 C 59.32142516685576 92.17283919977854 89.14211786770306 C 0.0 **** -0.24
25387 H 58.78816139013187 92.7055751160858 88.35424091529563 H 0.0 **** 0.06
25388 H 60.37807180961252 92.1021000404808 88.88172054246189 H 0.0 **** 0.06
25389 H 58.90508021565393 91.17052492069134 89.24913140233303 H 0.0 **** 0.06
25390 H 59.21417740912922 92.7135002298665 90.08202285731522 H 0.0 **** 0.06
25391 C 49.97671441709343 75.37309342434605 104.27377002106485 C 0.0 **** -0.24
25392 H 49.05443963373894 74.90511033260873 104.61740775549472 H 0.0 **** 0.06
25393 H 50.78460558493149 74.64098811125132 104.29217055114015 H 0.0 **** 0.06
25394 H 50.2258809586953 76.20729444697179 104.92896122180795 H 0.0 **** 0.06
25395 H 49.84072151935052 75.73886308758455 103.25530675701927 H 0.0 **** 0.06
25396 C 11.660956616394486 81.74682194345193 67.02215714290972 C 0.0 **** -0.24
25397 H 12.44402924851147 82.24108397615758 67.59777002942701 H 0.0 **** 0.06
25398 H 12.081154490751288 81.3644895208255 66.09198053500026 H 0.0 **** 0.06
25399 H 10.870133117905908 82.4625793318221 66.79737408022703 H 0.0 **** 0.06
25400 H 11.250232962539997 80.9209264016238 67.60345872343936 H 0.0 **** 0.06
25401 C 42.39402649821096 1.665492692269872 106.39290454653485 C 0.0 **** -0.24
25402 H 43.39017033227739 1.2260432343101675 106.3606025683583 H 0.0 **** 0.06
25403 H 41.752838422449855 1.068156300904767 107.04237820416505 H 0.0 **** 0.06
25404 H 41.97327567402522 1.6865391216815437 105.38684951309145 H 0.0 **** 0.06
25405 H 42.45824286091147 2.683099546354957 106.7800498464978 H 0.0 **** 0.06
25406 C 27.962327961012335 75.88038156030944 108.09914931754355 C 0.0 **** -0.24
25407 H 27.495470502650505 75.09861595604303 108.69844016916267 H 0.0 **** 0.06
25408 H 28.000445128062843 75.56395484904064 107.05718480759191 H 0.0 **** 0.06
25409 H 28.973796008989943 76.06064213607124 108.46284474350676 H 0.0 **** 0.06
25410 H 27.378339783619545 76.79764830027031 108.18095059973632 H 0.0 **** 0.06
25411 C 61.44093848409506 96.21055979440735 58.04272725773217 C 0.0 **** -0.24
25412 H 62.21893767015118 96.39228482501323 58.78372800518082 H 0.0 **** 0.06
25413 H 61.38937464288898 97.05660836294506 57.356359334972296 H 0.0 **** 0.06
25414 H 60.48042106574778 96.09232484686417 58.54565440876058 H 0.0 **** 0.06
25415 H 61.67410607492731 95.30366548600658 57.48558148832575 H 0.0 **** 0.06
25416 C 39.88672244541421 37.13869228753956 67.96897382448856 C 0.0 **** -0.24
25417 H 39.981490336003716 38.19704850076093 67.72926575266246 H 0.0 **** 0.06
25418 H 40.833919138530504 36.76900136162119 68.362764311766 H 0.0 **** 0.06
25419 H 39.62582782986887 36.58332224529793 67.06766865071609 H 0.0 **** 0.06
25420 H 39.10544925795032 37.0044743391911 68.71724892289348 H 0.0 **** 0.06
25421 C 10.804722312095919 0.1508603206433703 23.729835590416883 C 0.0 **** -0.24
25422 H 10.978538823613235 0.9666842394382051 24.430331797818155 H 0.0 **** 0.06
25423 H 9.736985289659572 0.06308162876576784 23.5307818785856 H 0.0 **** 0.06
25424 H 11.171950480698968 -0.7810551559673922 24.159472495808476 H 0.0 **** 0.06
25425 H 11.33318704250945 0.35345127052150804 22.797650599254364 H 0.0 **** 0.06
25426 C 39.181456983305274 79.4574613736527 20.551200106166025 C 0.0 **** -0.24
25427 H 39.492655490234355 79.55028398666133 21.592011014595798 H 0.0 **** 0.06
25428 H 38.27535515331961 80.0405935127664 20.38953006970959 H 0.0 **** 0.06
25429 H 38.98545120073135 78.40954895190731 20.323634370831634 H 0.0 **** 0.06
25430 H 39.973851150772454 79.82837811625288 19.900933140007957 H 0.0 **** 0.06
25431 C 42.33862219405455 28.800537856819346 44.65891843368456 C 0.0 **** -0.24
25432 H 43.223667341424374 29.249372923194585 45.111532075406416 H 0.0 **** 0.06
25433 H 42.54712472216272 28.557257975377382 43.61710441235479 H 0.0 **** 0.06
25434 H 41.509072101487874 29.505349267800412 44.70922101336973 H 0.0 **** 0.06
25435 H 42.07694285144322 27.890620600363633 45.19937323467819 H 0.0 **** 0.06
25436 C 57.2562819782315 25.59287874111564 51.55285357266886 C 0.0 **** -0.24
25437 H 57.44783802449314 25.705876574879937 52.62058233205391 H 0.0 **** 0.06
25438 H 56.319862870336976 25.05469069677963 51.40686818445122 H 0.0 **** 0.06
25439 H 58.07261186551568 25.035437890608407 51.09481316086981 H 0.0 **** 0.06
25440 H 57.1852895327786 26.57834581700118 51.09132607360784 H 0.0 **** 0.06
25441 C 68.62818820458418 19.90538864989145 90.37203326272181 C 0.0 **** -0.24
25442 H 69.62959905019038 19.940111826584257 89.9415329201768 H 0.0 **** 0.06
25443 H 68.48229817879556 20.766850086113266 91.0235669513138 H 0.0 **** 0.06
25444 H 68.51456944450476 18.98804124150962 90.95095333183333 H 0.0 **** 0.06
25445 H 67.88865433655927 19.92450657572232 89.57162085775178 H 0.0 **** 0.06
25446 C 14.005795162215982 100.3925015693942 77.20269410643141 C 0.0 **** -0.24
25447 H 15.08435171054359 100.31299557323723 77.06793723188923 H 0.0 **** 0.06
25448 H 13.534774355969766 99.4499746824792 76.92504272162591 H 0.0 **** 0.06
25449 H 13.619233188262047 101.19197861693289 76.56994281488176 H 0.0 **** 0.06
25450 H 13.78547237093185 100.61619968471837 78.24604488045964 H 0.0 **** 0.06
25451 C 62.155253650362084 12.494818980087857 21.6046281455977 C 0.0 **** -0.24
25452 H 61.81436973502571 12.39738344925587 20.573691989545736 H 0.0 **** 0.06
25453 H 61.35210755213262 12.911382818229441 22.214113069958273 H 0.0 **** 0.06
25454 H 63.01993098434792 13.15718708931135 21.640074402496268 H 0.0 **** 0.06
25455 H 62.43168959695831 11.513647393778257 21.988792536628466 H 0.0 **** 0.06
25456 C 68.01858676340503 44.6498036752823 14.671404846808741 C 0.0 **** -0.24
25457 H 67.67815640393408 44.959742298649545 15.659834978564277 H 0.0 **** 0.06
25458 H 67.77424999793028 45.42291727820165 13.943713492080576 H 0.0 **** 0.06
25459 H 67.52374585113674 43.71899566888047 14.392197314937533 H 0.0 **** 0.06
25460 H 69.0977914124173 44.49595764310388 14.6903947772214 H 0.0 **** 0.06
25461 C 9.926765860528633 108.50415875608428 16.094264810128443 C 0.0 **** -0.24
25462 H 10.595578769861206 107.74286374380202 15.69419981295416 H 0.0 **** 0.06
25463 H 9.88432598466568 108.41632011497566 17.180049369955587 H 0.0 **** 0.06
25464 H 8.928698120081933 108.36476215917443 15.678417173043783 H 0.0 **** 0.06
25465 H 10.297314815978908 109.49282788518946 15.82357553199882 H 0.0 **** 0.06
25466 C 4.982317083161547 58.67068000397177 41.70691380026631 C 0.0 **** -0.24
25467 H 6.023576409721045 58.97672896345318 41.8052646299425 H 0.0 **** 0.06
25468 H 4.8711779839711085 57.644323297249684 42.05752027964499 H 0.0 **** 0.06
25469 H 4.683284895433758 58.73166073505274 40.66011391231561 H 0.0 **** 0.06
25470 H 4.351736302291499 59.32903077134284 42.303867713907295 H 0.0 **** 0.06
25471 C 60.181848164771964 10.772273267696436 24.452434316183684 C 0.0 **** -0.24
25472 H 59.73518865920792 9.807265439364555 24.20980267024774 H 0.0 **** 0.06
25473 H 60.99573798980674 10.979972017144698 23.75736851086549 H 0.0 **** 0.06
25474 H 60.569945713551476 10.746124623197321 25.47137713890004 H 0.0 **** 0.06
25475 H 59.42572403304905 11.553128525124517 24.37195935487702 H 0.0 **** 0.06
25476 C 2.2435412562036845 47.95841865517809 96.27425066256046 C 0.0 **** -0.24
25477 H 2.2531267560138986 48.62278197345796 97.13812238054282 H 0.0 **** 0.06
25478 H 1.913821179416118 46.96645536433948 96.58354078044664 H 0.0 **** 0.06
25479 H 3.2466423065808954 47.893612500911786 95.85422299010733 H 0.0 **** 0.06
25480 H 1.558772556594704 48.351067401713806 95.52241779238591 H 0.0 **** 0.06
25481 C 29.615339239518704 37.56575933081689 103.71044984412288 C 0.0 **** -0.24
25482 H 29.43418485710282 36.661578341302715 103.12858411033375 H 0.0 **** 0.06
25483 H 30.380355225197178 37.366225371434524 104.46176647195517 H 0.0 **** 0.06
25484 H 28.692903967195008 37.87055075976377 104.20378560208962 H 0.0 **** 0.06
25485 H 29.954296625150192 38.361805554455884 103.04842106641206 H 0.0 **** 0.06
25486 C 59.14921435781321 12.11862416239211 84.80965009189005 C 0.0 **** -0.24
25487 H 59.25077578800136 12.622647620121857 85.77116843878052 H 0.0 **** 0.06
25488 H 59.61217747057805 11.132926318912821 84.86559496290282 H 0.0 **** 0.06
25489 H 59.64309271843467 12.708671232962988 84.03755133656621 H 0.0 **** 0.06
25490 H 58.09232659479903 12.012104592337487 84.56480583313905 H 0.0 **** 0.06
25491 C 92.23726084719368 10.486757268317234 86.96444910034604 C 0.0 **** -0.24
25492 H 91.90548253647792 11.21562090432542 87.70410093121428 H 0.0 **** 0.06
25493 H 92.7379142568976 9.658898731603188 87.46848120890388 H 0.0 **** 0.06
25494 H 92.92975921628715 10.96230082564648 86.26986130930362 H 0.0 **** 0.06
25495 H 91.37405141513341 10.108777636677388 86.41459016493543 H 0.0 **** 0.06
25496 C 19.39184790361338 12.970094393845727 35.98427450921383 C 0.0 **** -0.24
25497 H 19.596146995913557 11.921805903778079 36.20218730670945 H 0.0 **** 0.06
25498 H 18.429855018579076 13.249674645559367 36.41395746359947 H 0.0 **** 0.06
25499 H 19.365986405053604 13.11829549947322 34.904142323446194 H 0.0 **** 0.06
25500 H 20.176765197841178 13.590956660201357 36.41667336691518 H 0.0 **** 0.06
25501 C 4.758881238842708 28.884621342176473 59.26103138850702 C 0.0 **** -0.24
25502 H 3.8522855793742288 28.781091823503004 59.85672827613 H 0.0 **** 0.06
25503 H 5.596734173720195 29.13107378015559 59.91381355449849 H 0.0 **** 0.06
25504 H 4.623510539265151 29.678642909602956 58.5270767871269 H 0.0 **** 0.06
25505 H 4.9636466365804015 27.945443852030337 58.745739522761205 H 0.0 **** 0.06
25506 C 108.52499268741724 91.65716733428246 101.54916752380552 C 0.0 **** -0.24
25507 H 109.23967854041538 90.83661530737982 101.60090048601799 H 0.0 **** 0.06
25508 H 108.6430105086636 92.29701663380023 102.4238203369323 H 0.0 **** 0.06
25509 H 107.51152608400307 91.25637303196217 101.52666770222805 H 0.0 **** 0.06
25510 H 108.70461795596717 92.23993791042587 100.64557132239334 H 0.0 **** 0.06
25511 C 7.513355649705886 27.980493908710457 24.24470508667551 C 0.0 **** -0.24
25512 H 8.304910356562317 27.489146103464392 24.8106090979054 H 0.0 **** 0.06
25513 H 6.544960214545654 27.715512110867763 24.669641334550818 H 0.0 **** 0.06
25514 H 7.555903790512048 27.65512881364785 23.2054596612779 H 0.0 **** 0.06
25515 H 7.6484152231621465 29.060638006686077 24.293196972476466 H 0.0 **** 0.06
25516 C 93.00332883939586 71.69774305650674 8.371901535853052 C 0.0 **** -0.24
25517 H 93.42920442165486 70.69668693840038 8.446363244245351 H 0.0 **** 0.06
25518 H 92.54369854565577 71.96881833917297 9.32188311628454 H 0.0 **** 0.06
25519 H 92.24996301866707 71.71382213770715 7.58444407224453 H 0.0 **** 0.06
25520 H 93.79272590967916 72.41080574125328 8.133151119267813 H 0.0 **** 0.06
25521 C 83.76866728828976 83.18650019760268 54.34464107445768 C 0.0 **** -0.24
25522 H 83.64686530736653 84.20800206969713 54.70597485893501 H 0.0 **** 0.06
25523 H 84.4682064214889 82.65458438151103 54.98968637708481 H 0.0 **** 0.06
25524 H 84.1565199768647 83.2053915355344 53.32585193870076 H 0.0 **** 0.06
25525 H 82.80421630695737 82.67917904481428 54.35765631237627 H 0.0 **** 0.06
25526 C 98.8370010888507 69.94148340452827 89.82564950512733 C 0.0 **** -0.24
25527 H 98.84557508707397 70.47254842236761 90.77754514120466 H 0.0 **** 0.06
25528 H 99.85802410933853 69.84268217815844 89.45594933806402 H 0.0 **** 0.06
25529 H 98.24207925978934 70.50076499968498 89.1037104709246 H 0.0 **** 0.06
25530 H 98.4032036205468 68.95139350874243 89.9657266873005 H 0.0 **** 0.06
25531 C 74.35852022103789 63.31034202459938 51.43278221382303 C 0.0 **** -0.24
25532 H 74.52025766945995 64.31426241180816 51.82558334344304 H 0.0 **** 0.06
25533 H 73.65998051550531 62.77656456092069 52.079044453715625 H 0.0 **** 0.06
25534 H 75.30735015502876 62.77422820914819 51.40356545935623 H 0.0 **** 0.06
25535 H 73.94583288103411 63.37499774359708 50.42622737775662 H 0.0 **** 0.06
25536 C 103.40783039838004 45.12981594300999 104.79843868095928 C 0.0 **** -0.24
25537 H 104.45815387578489 44.93900778324047 104.57565008661669 H 0.0 **** 0.06
25538 H 103.06627029706385 45.99204822683146 104.22582882802634 H 0.0 **** 0.06
25539 H 103.29437226083013 45.33124720918522 105.86327365438703 H 0.0 **** 0.06
25540 H 102.81596712015653 44.25553624558734 104.52935564009297 H 0.0 **** 0.06
25541 C 50.64449409393417 19.849802097516374 76.76516196915469 C 0.0 **** -0.24
25542 H 51.69509676577972 20.135441212974882 76.80635824273395 H 0.0 **** 0.06
25543 H 50.23637562626116 20.106297104279633 75.78700884091683 H 0.0 **** 0.06
25544 H 50.09205685759716 20.38110836513283 77.54005073825601 H 0.0 **** 0.06
25545 H 50.55358536257713 18.77534097043781 76.92676577224188 H 0.0 **** 0.06
25546 C 68.6090442282756 85.95484464081073 30.03147571255417 C 0.0 **** -0.24
25547 H 67.92357998286579 86.34316026688253 30.7843406234812 H 0.0 **** 0.06
25548 H 69.42326379365613 86.66366736350366 29.881153710172555 H 0.0 **** 0.06
25549 H 68.07428375935086 85.81094956266554 29.093090787270086 H 0.0 **** 0.06
25550 H 69.01498721362896 84.9998125070793 30.368658009929106 H 0.0 **** 0.06
25551 C 4.431968388892926 101.82024742994929 60.604239733921034 C 0.0 **** -0.24
25552 H 4.906718166199852 100.83942517510872 60.62505327107918 H 0.0 **** 0.06
25553 H 5.188925118401983 102.5930683624756 60.735419559348315 H 0.0 **** 0.06
25554 H 3.7017014664185126 101.88714952659888 61.411143837430444 H 0.0 **** 0.06
25555 H 3.9296814065277488 101.9602942212378 59.647123993451885 H 0.0 **** 0.06
25556 C 66.8695587395185 21.03792734011249 34.62565453159999 C 0.0 **** -0.24
25557 H 66.23633895928012 20.718169494981613 33.7987510074808 H 0.0 **** 0.06
25558 H 66.4232555868102 21.905838201246347 35.11168140827229 H 0.0 **** 0.06
25559 H 67.85670449807807 21.300456580272304 34.24705125084748 H 0.0 **** 0.06
25560 H 66.9622648709686 20.224828406108678 35.34656688844905 H 0.0 **** 0.06
25561 C 97.62068602946914 62.47104685301463 13.28982527963015 C 0.0 **** -0.24
25562 H 97.61029731990513 63.43329671122177 13.802064641889444 H 0.0 **** 0.06
25563 H 97.30539497537114 61.68871298504308 13.980614799262057 H 0.0 **** 0.06
25564 H 98.6282482673233 62.258413748900125 12.935240642017959 H 0.0 **** 0.06
25565 H 96.93533397348754 62.50417655826868 12.442271212113639 H 0.0 **** 0.06
25566 C 83.23704063686313 24.01262767690733 47.48045294667795 C 0.0 **** -0.24
25567 H 83.0294040149023 23.2127859593337 46.769728585374914 H 0.0 **** 0.06
25568 H 83.57878114747933 24.897713061025016 46.94177655016407 H 0.0 **** 0.06
25569 H 84.01038881266743 23.6887840127405 48.17644555159566 H 0.0 **** 0.06
25570 H 82.32768679571643 24.25241291368937 48.03287178120284 H 0.0 **** 0.06
25571 C 79.65827305678172 33.18364281586372 87.8882312173348 C 0.0 **** -0.24
25572 H 79.24330712579733 32.281489625616075 88.33717635575636 H 0.0 **** 0.06
25573 H 80.70373468107746 33.01364209465828 87.6318182940557 H 0.0 **** 0.06
25574 H 79.58679200309571 34.00809455435376 88.59699253621122 H 0.0 **** 0.06
25575 H 79.09823888056495 33.429825293384795 86.9853093810774 H 0.0 **** 0.06
25576 C 50.5967125078887 80.49309956678168 67.3685195346264 C 0.0 **** -0.24
25577 H 51.12944180989848 79.62153897537857 67.74996091927486 H 0.0 **** 0.06
25578 H 50.40278451238703 80.36248986007132 66.30357543580328 H 0.0 **** 0.06
25579 H 51.20332332544024 81.38545068127505 67.5215314520767 H 0.0 **** 0.06
25580 H 49.65077155806688 80.60110248706032 67.9002027148964 H 0.0 **** 0.06
25581 C 77.61934647238519 51.38396710258502 35.485812738618755 C 0.0 **** -0.24
25582 H 77.43115350061106 51.06562799630785 36.51133431293133 H 0.0 **** 0.06
25583 H 78.67423582830133 51.24486314375457 35.25066307188744 H 0.0 **** 0.06
25584 H 77.35841767141963 52.43707717567662 35.38002422940221 H 0.0 **** 0.06
25585 H 77.01272408764532 50.7891431918259 34.803364474590374 H 0.0 **** 0.06
25586 C 100.3593463021059 27.043216876286692 79.24844527873461 C 0.0 **** -0.24
25587 H 101.3175303296722 26.578436615131068 79.01209461669661 H 0.0 **** 0.06
25588 H 99.55668012396814 26.486164278461473 78.7658520317211 H 0.0 **** 0.06
25589 H 100.35724023933585 28.071762779574485 78.88709119787511 H 0.0 **** 0.06
25590 H 100.20958009536281 27.03692462653683 80.32801294497216 H 0.0 **** 0.06
25591 C 88.07042066852496 74.93764345856201 32.78747937251535 C 0.0 **** -0.24
25592 H 88.613666562217 74.38902845761987 33.557064556631936 H 0.0 **** 0.06
25593 H 88.74709295178806 75.17850148527515 31.967161183698003 H 0.0 **** 0.06
25594 H 87.67050787639592 75.858905275056 33.21246213102899 H 0.0 **** 0.06
25595 H 87.2502180785558 74.3237051378828 32.415414442340435 H 0.0 **** 0.06
25596 C 25.285650787326986 52.88275094470498 84.18176371170853 C 0.0 **** -0.24
25597 H 24.77139058400248 53.517228819219554 83.45994785537573 H 0.0 **** 0.06
25598 H 25.849659808038396 52.11445163383007 83.65191287628676 H 0.0 **** 0.06
25599 H 24.55311317506738 52.410625593031455 84.83542960295182 H 0.0 **** 0.06
25600 H 25.967340105958982 53.489155886171716 84.77762405789764 H 0.0 **** 0.06
25601 C 62.745219884198264 105.52003139794678 72.09084325741286 C 0.0 **** -0.24
25602 H 63.77733841056312 105.56348817639102 72.43829643165527 H 0.0 **** 0.06
25603 H 62.56307687851594 106.33671841499549 71.39181955327025 H 0.0 **** 0.06
25604 H 62.07116297088004 105.61298900344752 72.94282392755181 H 0.0 **** 0.06
25605 H 62.56959932604033 104.56768091638025 71.5910224695564 H 0.0 **** 0.06
25606 C 93.26433829696377 56.43255303393266 67.98172378516917 C 0.0 **** -0.24
25607 H 92.65027639415668 55.664750180496355 67.51047475422284 H 0.0 **** 0.06
25608 H 93.20110403969441 56.33170443187163 69.06539526298556 H 0.0 **** 0.06
25609 H 92.90321064779835 57.41815541655086 67.68718745257308 H 0.0 **** 0.06
25610 H 94.30035085387566 56.31432534227659 67.66508514050972 H 0.0 **** 0.06
25611 C 26.725433853762922 73.66440544816254 63.66081070812763 C 0.0 **** -0.24
25612 H 27.79626196527593 73.86790047546685 63.655352384220976 H 0.0 **** 0.06
25613 H 26.32455817266333 73.80154385154532 62.65622540087486 H 0.0 **** 0.06
25614 H 26.229122571531008 74.35050118136849 64.34721119185512 H 0.0 **** 0.06
25615 H 26.55279216407206 72.63770980442803 63.98445680012509 H 0.0 **** 0.06
25616 C 103.4038294085605 11.918232080683765 69.23346795899079 C 0.0 **** -0.24
25617 H 104.36150007014973 11.417389655835365 69.37266779948152 H 0.0 **** 0.06
25618 H 103.52988763754567 12.990877187583578 69.37985665474923 H 0.0 **** 0.06
25619 H 102.68409937878182 11.533756297437463 69.95574553077097 H 0.0 **** 0.06
25620 H 103.03930308351329 11.729118043739447 68.22285804634981 H 0.0 **** 0.06
25621 C 98.13374693316376 3.8037851108832132 63.51088614857815 C 0.0 **** -0.24
25622 H 97.18811821122735 3.395390726906527 63.15319179238543 H 0.0 **** 0.06
25623 H 98.39608721863233 4.6833534171643 62.92124970704498 H 0.0 **** 0.06
25624 H 98.91512826008609 3.0512318058116836 63.41090841024294 H 0.0 **** 0.06
25625 H 98.03302756245931 4.085722683732966 64.55953276955677 H 0.0 **** 0.06
25626 C 0.4980906696282119 7.369966290897139 38.633748727307484 C 0.0 **** -0.24
25627 H 0.8900286013044365 6.37349930166647 38.43153342563397 H 0.0 **** 0.06
25628 H -0.5918211208957587 7.346698670973353 38.59266502169691 H 0.0 **** 0.06
25629 H 0.875523757961389 8.067582421086456 37.886251000968045 H 0.0 **** 0.06
25630 H 0.817423294988032 7.691698417448805 39.62517093370524 H 0.0 **** 0.06
25631 C 46.17975325810093 1.0185181712575542 1.501341695265097 C 0.0 **** -0.24
25632 H 45.46937820747206 1.0273446308736283 2.3271928785426184 H 0.0 **** 0.06
25633 H 46.71476902629573 0.06905054696160562 1.4930226488826435 H 0.0 **** 0.06
25634 H 46.89092322140996 1.8359333356834782 1.6246204297931968 H 0.0 **** 0.06
25635 H 45.643942577225914 1.1417441715111352 0.5605308238421571 H 0.0 **** 0.06
25636 C 35.62686765096416 74.03907072614862 89.12390040572689 C 0.0 **** -0.24
25637 H 36.11660602252397 74.2282175888854 90.07904209459957 H 0.0 **** 0.06
25638 H 36.123738734296325 73.21200331379669 88.61800869484216 H 0.0 **** 0.06
25639 H 35.68511909674237 74.93319610180174 88.50248308209154 H 0.0 **** 0.06
25640 H 34.580881267708065 73.78503901675197 89.29596215643687 H 0.0 **** 0.06
25641 C 49.821613384736764 87.39764033476686 54.73006060396796 C 0.0 **** -0.24
25642 H 50.01267379997614 88.46833688953701 54.80780833802578 H 0.0 **** 0.06
25643 H 50.76715349418152 86.85651880854815 54.76621667903868 H 0.0 **** 0.06
25644 H 49.31830779396646 87.18698109550913 53.785509854610325 H 0.0 **** 0.06
25645 H 49.188353015072664 87.08032960006476 55.5583788103263 H 0.0 **** 0.06
25646 C 67.45299214973583 29.713049993801896 90.78167617429605 C 0.0 **** -0.24
25647 H 67.60092907993251 30.70390173507615 91.21233544358839 H 0.0 **** 0.06
25648 H 66.67439882062011 29.761368793714944 90.02042090682357 H 0.0 **** 0.06
25649 H 67.1526849207215 29.017683907780622 91.56546660236923 H 0.0 **** 0.06
25650 H 68.38400575138284 29.371051316574217 90.33013612221467 H 0.0 **** 0.06
25651 C 22.364542799858384 106.24370417405609 85.05017836973776 C 0.0 **** -0.24
25652 H 21.595349094991278 106.19995720710703 85.82084761198493 H 0.0 **** 0.06
25653 H 23.13875709285872 105.50761927742917 85.26818329886672 H 0.0 **** 0.06
25654 H 22.8062713778485 107.24057231735699 85.03400176346538 H 0.0 **** 0.06
25655 H 21.919912352668906 106.02814145492253 84.07883840803592 H 0.0 **** 0.06
25656 C 108.81437052938011 19.716785113538435 24.108128367978964 C 0.0 **** -0.24
25657 H 109.49031302813293 20.567046260292216 24.017847813046274 H 0.0 **** 0.06
25658 H 109.07497494361132 18.965671631278155 23.36178341446316 H 0.0 **** 0.06
25659 H 107.78914812793036 20.049775133712927 23.945498257949964 H 0.0 **** 0.06
25660 H 108.9042592174581 19.285379310683396 25.1047395693883 H 0.0 **** 0.06
25661 C 9.770396849503896 88.91800387794802 81.80077019236529 C 0.0 **** -0.24
25662 H 9.000575591375423 89.68173957184706 81.69184421821836 H 0.0 **** 0.06
25663 H 9.349696560387684 88.04776498804858 82.30412233852323 H 0.0 **** 0.06
25664 H 10.595821327951 89.31668003159669 82.39157953448748 H 0.0 **** 0.06
25665 H 10.136070301323684 88.62746043453114 80.81542236340056 H 0.0 **** 0.06
25666 C 51.39544478108255 101.87485272871857 98.18436808498993 C 0.0 **** -0.24
25667 H 51.33889005146679 101.29019780309335 99.10268069761224 H 0.0 **** 0.06
25668 H 50.802908648536636 102.78394995030672 98.29577333208769 H 0.0 **** 0.06
25669 H 51.00582282282273 101.28625712072883 97.35431642377316 H 0.0 **** 0.06
25670 H 52.43411999392256 102.14033193512887 97.98676122789408 H 0.0 **** 0.06
25671 C 84.63713253947707 19.252215875023865 82.11516219232601 C 0.0 **** -0.24
25672 H 85.09623975209121 19.221937224340422 83.10333810692788 H 0.0 **** 0.06
25673 H 83.5764312959256 19.012442790949336 82.2005184497554 H 0.0 **** 0.06
25674 H 85.1241622102775 18.524600892578775 81.46684179093646 H 0.0 **** 0.06
25675 H 84.75131258813688 20.250204847270368 81.69234807755072 H 0.0 **** 0.06
25676 C 89.29667008582283 12.236475134429853 4.435331789907281 C 0.0 **** -0.24
25677 H 88.33061689744483 11.999765521554043 4.881675469218067 H 0.0 **** 0.06
25678 H 90.08746734187594 12.05375348926595 5.162436548633849 H 0.0 **** 0.06
25679 H 89.3113891241602 13.28495517939474 4.13717608482213 H 0.0 **** 0.06
25680 H 89.45504778314537 11.607891609241793 3.559690274773345 H 0.0 **** 0.06
25681 C 99.99126100726176 103.68430337400203 31.23624643210377 C 0.0 **** -0.24
25682 H 99.96996267444433 102.87122448905268 30.510008169325545 H 0.0 **** 0.06
25683 H 99.80185499142544 103.28548186822432 32.23283392544579 H 0.0 **** 0.06
25684 H 99.22411312734488 104.41647740375062 30.98399221510502 H 0.0 **** 0.06
25685 H 100.9711039557045 104.16224669513782 31.215730995556726 H 0.0 **** 0.06
25686 C 42.03848638696322 73.85846449095249 38.33271469588203 C 0.0 **** -0.24
25687 H 41.80793474105464 73.35496276807436 37.39417605083855 H 0.0 **** 0.06
25688 H 43.10542954749614 74.08391459077677 38.37124436901473 H 0.0 **** 0.06
25689 H 41.77456310363928 73.20947419808218 39.168082873643016 H 0.0 **** 0.06
25690 H 41.468716008603366 74.78501405948788 38.39804800712932 H 0.0 **** 0.06
25691 C 81.87533802294689 91.13962160960381 47.297979004024484 C 0.0 **** -0.24
25692 H 81.39280004060993 90.16370835768748 47.329636419822435 H 0.0 **** 0.06
25693 H 82.95530001869489 91.01342684095374 47.387214286568415 H 0.0 **** 0.06
25694 H 81.51110812281905 91.75183175684434 48.123050627594246 H 0.0 **** 0.06
25695 H 81.64348323285756 91.62997076428164 46.352066234190815 H 0.0 **** 0.06
25696 C 47.382360963560814 74.08648972625858 95.83269013589367 C 0.0 **** -0.24
25697 H 46.58707299832054 74.03693689523654 95.08874091229286 H 0.0 **** 0.06
25698 H 48.202951788494715 74.69329320280649 95.44722132464321 H 0.0 **** 0.06
25699 H 47.74395649069572 73.08025007137803 96.04532436145173 H 0.0 **** 0.06
25700 H 46.99672350228582 74.53495160418345 96.74770407317557 H 0.0 **** 0.06
25701 C 107.68958154472546 66.77625386789569 50.00934716738067 C 0.0 **** -0.24
25702 H 106.66378085314415 66.4558898303456 49.82301208438025 H 0.0 **** 0.06
25703 H 108.0812888569032 67.27225979156208 49.12075703942827 H 0.0 **** 0.06
25704 H 108.30491223522571 65.90710857964928 50.24068770834026 H 0.0 **** 0.06
25705 H 107.70703366256132 67.46866092174378 50.8504658953957 H 0.0 **** 0.06
25706 C 23.74529795880284 28.76783201313384 47.84443048577903 C 0.0 **** -0.24
25707 H 24.674360246422964 28.593308371429202 47.30170990349866 H 0.0 **** 0.06
25708 H 23.781688449708824 29.74654741569833 48.323613949679725 H 0.0 **** 0.06
25709 H 23.618724009733278 27.996133764595413 48.603382845594936 H 0.0 **** 0.06
25710 H 22.906988341120616 28.734516697587196 47.14904145429998 H 0.0 **** 0.06
25711 C 86.3904261424364 36.04657559178605 83.30010692588556 C 0.0 **** -0.24
25712 H 87.22690830488993 35.842188548862 83.9694845945287 H 0.0 **** 0.06
25713 H 85.58562590068266 36.52392081941554 83.86006676205416 H 0.0 **** 0.06
25714 H 86.03053305730539 35.10976753666159 82.87350342259974 H 0.0 **** 0.06
25715 H 86.71973438375103 36.70771802716888 82.49971106710254 H 0.0 **** 0.06
25716 C 74.4973315842513 78.46031138109336 17.684770182220785 C 0.0 **** -0.24
25717 H 75.22603981048155 77.81536576851394 18.17582347997775 H 0.0 **** 0.06
25718 H 74.38696767236132 79.38309143875213 18.255234630299547 H 0.0 **** 0.06
25719 H 73.53721610284589 77.94777031592868 17.632542413044725 H 0.0 **** 0.06
25720 H 74.83973429790842 78.69506576115077 16.677092352119622 H 0.0 **** 0.06
25721 C 36.40291890114915 71.61080328694607 24.93614107711352 C 0.0 **** -0.24
25722 H 37.04514791747742 71.01583118945409 24.286560464637603 H 0.0 **** 0.06
25723 H 36.92452748781682 72.52290787720237 25.227341346734832 H 0.0 **** 0.06
25724 H 36.155278456421115 71.03412869775754 25.827600843621582 H 0.0 **** 0.06
25725 H 35.48700439790204 71.86812751557983 24.404062386134015 H 0.0 **** 0.06
25726 C 64.9068692483099 0.025573974312919745 108.22267502620554 C 0.0 **** -0.24
25727 H 65.58452244638674 0.5750938329399276 108.87613193822764 H 0.0 **** 0.06
25728 H 65.46041256083954 -0.35589937905328384 107.36379388204702 H 0.0 **** 0.06
25729 H 64.11510052158489 0.6903480566535904 107.87899274770638 H 0.0 **** 0.06
25730 H 64.46921533234043 -0.8076140577408211 108.77262922510504 H 0.0 **** 0.06
25731 C 24.060204478003527 54.44032028379576 108.63412310114757 C 0.0 **** -0.24
25732 H 23.08703605178033 54.77355444824852 108.99544995697349 H 0.0 **** 0.06
25733 H 23.956192730300927 53.463898115019674 108.16038773745115 H 0.0 **** 0.06
25734 H 24.75306230595703 54.36668707361173 109.47171607573927 H 0.0 **** 0.06
25735 H 24.44321708452742 55.15719349688857 107.90840761859135 H 0.0 **** 0.06
25736 C 9.462010755994655 23.075066592961917 46.9978178231577 C 0.0 **** -0.24
25737 H 8.458871522396933 23.384848989852344 46.70494002547443 H 0.0 **** 0.06
25738 H 10.107942505703235 23.05817951186836 46.11851867483506 H 0.0 **** 0.06
25739 H 9.421054194854548 22.078869526881505 47.437907373402766 H 0.0 **** 0.06
25740 H 9.861097869357025 23.778818464135043 47.72851041259656 H 0.0 **** 0.06
25741 C 91.03202786175439 83.12030624896525 43.50542721793215 C 0.0 **** -0.24
25742 H 90.53069874854464 83.88198688651518 42.9090652958865 H 0.0 **** 0.06
25743 H 92.08407822291144 83.07125744478179 43.22269560001742 H 0.0 **** 0.06
25744 H 90.56254044251557 82.15157139996877 43.32680372814699 H 0.0 **** 0.06
25745 H 90.95009574598066 83.3737069893035 44.562043998005905 H 0.0 **** 0.06
25746 C 72.24820259428505 64.20979980124184 94.8208107159239 C 0.0 **** -0.24
25747 H 71.65257027035865 65.03537841039764 95.21227212183716 H 0.0 **** 0.06
25748 H 72.08802716015738 64.12467580125121 93.74553556573343 H 0.0 **** 0.06
25749 H 71.94730033872396 63.28174815727493 95.30749939574245 H 0.0 **** 0.06
25750 H 73.3028918858954 64.39828959267334 95.01758949161179 H 0.0 **** 0.06
25751 C 66.22523733112422 84.04129344369014 61.729072117604375 C 0.0 **** -0.24
25752 H 66.7893546872292 84.89454745383316 61.35149947269451 H 0.0 **** 0.06
25753 H 65.19936874370853 84.34729196343525 61.935320594569134 H 0.0 **** 0.06
25754 H 66.68784147496393 83.67727021302892 62.64601449155958 H 0.0 **** 0.06
25755 H 66.22503273278465 83.24733695311816 60.9814639507608 H 0.0 **** 0.06
25756 C 4.395128118624825 61.79663470266648 1.6810770435422455 C 0.0 **** -0.24
25757 H 4.061062132448342 61.63703890681607 2.7061462846404822 H 0.0 **** 0.06
25758 H 4.033355322129978 60.984205118656746 1.0505284741168168 H 0.0 **** 0.06
25759 H 5.4848976329921015 61.82090185447146 1.6540693681708944 H 0.0 **** 0.06
25760 H 4.002187773617607 62.74479535975513 1.3144899436568664 H 0.0 **** 0.06
25761 C 5.213078712661842 103.83904139728392 24.65214147451718 C 0.0 **** -0.24
25762 H 4.1765612869984885 103.78298367986568 24.983995356406012 H 0.0 **** 0.06
25763 H 5.71709645368297 104.65312521410095 25.17422152611249 H 0.0 **** 0.06
25764 H 5.241189573068041 104.02314414732064 23.578286825287762 H 0.0 **** 0.06
25765 H 5.717663438511439 102.89835603104345 24.872999274816436 H 0.0 **** 0.06
25766 C 82.53052611835562 102.01432972669113 61.515688869854785 C 0.0 **** -0.24
25767 H 82.17044989205704 101.98911250127344 60.48696242942742 H 0.0 **** 0.06
25768 H 81.74032853291715 102.38536898184157 62.16874823434057 H 0.0 **** 0.06
25769 H 83.3961134000075 102.67266644460841 61.58208341185889 H 0.0 **** 0.06
25770 H 82.81537469061095 101.0080075149769 61.825503080181534 H 0.0 **** 0.06
25771 C 77.40856183944098 107.87461718047568 100.80812238120743 C 0.0 **** -0.24
25772 H 77.61547717366734 106.81450042508379 100.66095450597525 H 0.0 **** 0.06
25773 H 77.47308096232523 108.39370512022624 99.85156716471137 H 0.0 **** 0.06
25774 H 78.13794447851184 108.29428006652353 101.5001511649924 H 0.0 **** 0.06
25775 H 76.40653239478182 107.99390519525483 101.22027796831942 H 0.0 **** 0.06
25776 C 77.08150353505403 92.93703467861712 107.47506733977863 C 0.0 **** -0.24
25777 H 77.91417241084508 92.33595470605349 107.84021561997827 H 0.0 **** 0.06
25778 H 76.61483924897965 92.43393381909317 106.62758525584354 H 0.0 **** 0.06
25779 H 77.45039679559733 93.9130592889729 107.15980461543876 H 0.0 **** 0.06
25780 H 76.34877772979644 93.06566504017943 108.27064945532265 H 0.0 **** 0.06
25781 C 51.74461158938003 29.16795884866883 93.53030868410079 C 0.0 **** -0.24
25782 H 52.644388186727234 28.63063366504133 93.8312748360105 H 0.0 **** 0.06
25783 H 51.16523663819273 28.549150435727768 92.84415874300134 H 0.0 **** 0.06
25784 H 52.025069041121554 30.096712598258705 93.03418680616736 H 0.0 **** 0.06
25785 H 51.144695360163944 29.393077965547093 94.41163423425064 H 0.0 **** 0.06
25786 C 7.3642727126152465 44.013686168277985 78.20055297718974 C 0.0 **** -0.24
25787 H 6.7624780217659435 43.718862627867395 79.06115286857673 H 0.0 **** 0.06
25788 H 8.241831441330177 43.36937867821524 78.13428477169265 H 0.0 **** 0.06
25789 H 7.681906263436645 45.04983353914068 78.318758030092 H 0.0 **** 0.06
25790 H 6.770958214311776 43.91663263835531 77.29175688093278 H 0.0 **** 0.06
25791 C 82.50424768179758 67.13022677821743 21.993903799643476 C 0.0 **** -0.24
25792 H 81.59889029372924 67.36531754773296 22.55371287813182 H 0.0 **** 0.06
25793 H 82.2384273923307 66.59355242141578 21.082875754515044 H 0.0 **** 0.06
25794 H 83.15823697832418 66.5076641279716 22.605283925185944 H 0.0 **** 0.06
25795 H 83.02082696649529 68.0545461322383 21.735007208437253 H 0.0 **** 0.06
25796 C 87.3593032599693 27.58866962048748 67.89469844687355 C 0.0 **** -0.24
25797 H 86.78792859294953 27.927182976793773 68.75919169496851 H 0.0 **** 0.06
25798 H 88.4214050846025 27.58722057573692 68.13919888623559 H 0.0 **** 0.06
25799 H 87.18089632370959 28.26157297960765 67.05574617417656 H 0.0 **** 0.06
25800 H 87.04710836093119 26.579661449421252 67.62440463488196 H 0.0 **** 0.06
25801 C 85.81309417608949 5.587310754514927 6.331796666764205 C 0.0 **** -0.24
25802 H 85.09840052128703 4.794053914316061 6.11235776121039 H 0.0 **** 0.06
25803 H 86.68272499138976 5.163202246745989 6.835002532644779 H 0.0 **** 0.06
25804 H 85.34577026630924 6.329724175366856 6.978238858479671 H 0.0 **** 0.06
25805 H 86.1264143092643 6.061202029715426 5.401524975796534 H 0.0 **** 0.06
25806 C 79.93673127610617 105.17406408079232 78.93087257142211 C 0.0 **** -0.24
25807 H 80.8134013911799 104.89840579856838 78.34406346892548 H 0.0 **** 0.06
25808 H 79.14137627372051 104.44917605511745 78.75658932548326 H 0.0 **** 0.06
25809 H 79.59782711135982 106.16554124308381 78.63282257821757 H 0.0 **** 0.06
25810 H 80.1971806922638 105.18102408349243 79.98940624441524 H 0.0 **** 0.06
25811 C 69.2607475074189 79.61968310037473 102.53944153238784 C 0.0 **** -0.24
25812 H 69.88580181636888 80.51222873178764 102.52463468739786 H 0.0 **** 0.06
25813 H 68.30207749780047 79.85596452306487 103.00292383418332 H 0.0 **** 0.06
25814 H 69.75875856025368 78.83701236175693 103.11202898113245 H 0.0 **** 0.06
25815 H 69.09580102151983 79.27388199385037 101.51943169399314 H 0.0 **** 0.06
25816 C 56.67340714531824 70.14261749813616 22.574909545265825 C 0.0 **** -0.24
25817 H 56.14349340765447 69.70296661111536 23.41966475963443 H 0.0 **** 0.06
25818 H 56.19647697616545 71.08307609887072 22.29740434066852 H 0.0 **** 0.06
25819 H 56.64137519471302 69.45527930053476 21.729687676424334 H 0.0 **** 0.06
25820 H 57.71082970684587 70.32836833148309 22.853410766894342 H 0.0 **** 0.06
25821 C 59.1827666645991 105.38384444619018 85.38953810954227 C 0.0 **** -0.24
25822 H 60.11101060424896 105.64108942798816 85.89895545543727 H 0.0 **** 0.06
25823 H 59.40242811782012 105.09015606303285 84.36224266568051 H 0.0 **** 0.06
25824 H 58.519554429263096 106.24874927549718 85.38592956096974 H 0.0 **** 0.06
25825 H 58.7001838016633 104.55651623471542 85.90952047103434 H 0.0 **** 0.06
25826 C 69.61464841776393 45.95275723499128 20.518847096946217 C 0.0 **** -0.24
25827 H 70.54438527570532 45.45847563341192 20.801238589128474 H 0.0 **** 0.06
25828 H 68.77948564702899 45.267826025780835 20.668784744719687 H 0.0 **** 0.06
25829 H 69.66194422630555 46.243892333238364 19.46957481685294 H 0.0 **** 0.06
25830 H 69.47287570749303 46.840067444164646 21.13697412586808 H 0.0 **** 0.06
25831 C 42.97183912028304 59.89336442737597 62.598683672582695 C 0.0 **** -0.24
25832 H 41.961236419550715 59.65045295578318 62.27031792555616 H 0.0 **** 0.06
25833 H 43.281390890356214 59.18878494819532 63.37109118187715 H 0.0 **** 0.06
25834 H 42.98992401376508 60.90550591703875 63.00090043906678 H 0.0 **** 0.06
25835 H 43.65407478580945 59.827366181895485 61.750797110683195 H 0.0 **** 0.06
25836 C 80.55458520042795 65.73298347968668 59.1133945812282 C 0.0 **** -0.24
25837 H 80.25853020212556 66.68059889160668 59.56546694940026 H 0.0 **** 0.06
25838 H 80.57415963564885 65.83994579295893 58.02817762661386 H 0.0 **** 0.06
25839 H 79.838434893965 64.95916352606926 59.390297620624864 H 0.0 **** 0.06
25840 H 81.5462633933693 65.45533589448638 59.47028396545841 H 0.0 **** 0.06
25841 C 58.580138855183094 66.60722227954494 75.94014979940793 C 0.0 **** -0.24
25842 H 57.78724416088491 67.08998927102812 76.51143160319143 H 0.0 **** 0.06
25843 H 58.76647215999691 67.17258849269604 75.02715538610246 H 0.0 **** 0.06
25844 H 58.27514429930346 65.59266964851767 75.68311447475214 H 0.0 **** 0.06
25845 H 59.49017738946719 66.57201704342611 76.53865652191455 H 0.0 **** 0.06
25846 C 14.793702240097048 9.22074951676552 89.15671962934748 C 0.0 **** -0.24
25847 H 15.805972620889293 9.155673618371019 88.75818399753321 H 0.0 **** 0.06
25848 H 14.55349302197817 8.299725472262358 89.68875078529715 H 0.0 **** 0.06
25849 H 14.08904093421063 9.362178195115124 88.3382514541075 H 0.0 **** 0.06
25850 H 14.727151255714375 10.064141027679751 89.8436006681372 H 0.0 **** 0.06
25851 C 63.03576813214296 71.46334108167707 55.12158962659066 C 0.0 **** -0.24
25852 H 63.46199504325419 71.27668468934007 54.13615223653301 H 0.0 **** 0.06
25853 H 63.8022339850007 71.31752811375674 55.88231264112619 H 0.0 **** 0.06
25854 H 62.21184713023057 70.77067273262418 55.296454314776156 H 0.0 **** 0.06
25855 H 62.66598881305164 72.48741078106619 55.16947857913971 H 0.0 **** 0.06
25856 C 91.40850930064653 30.236857201061397 20.449110002841454 C 0.0 **** -0.24
25857 H 91.36290809583876 29.34544242934146 19.823288853817655 H 0.0 **** 0.06
25858 H 91.99573364716383 31.004930175165214 19.945670490631226 H 0.0 **** 0.06
25859 H 91.87711499542867 29.987509909080785 21.401892541691446 H 0.0 **** 0.06
25860 H 90.39932097835444 30.6074587919325 20.626336441033562 H 0.0 **** 0.06
25861 C 105.93967228871125 68.9214249693768 9.077658276820841 C 0.0 **** -0.24
25862 H 105.83114015480737 69.86361486849461 9.616319497121168 H 0.0 **** 0.06
25863 H 106.57958028174323 69.07171675204171 8.207945667937736 H 0.0 **** 0.06
25864 H 104.95826981746526 68.57481642465399 8.752440477991968 H 0.0 **** 0.06
25865 H 106.38788391326204 68.17778584188977 9.73585505752942 H 0.0 **** 0.06
25866 C 20.374070210748602 51.63321708845103 16.47059543850102 C 0.0 **** -0.24
25867 H 21.22151509123018 51.02353903682703 16.159228054700833 H 0.0 **** 0.06
25868 H 20.681734614996028 52.29378888599052 17.282247741946094 H 0.0 **** 0.06
25869 H 19.568221080370975 50.98550821239843 16.81484712100547 H 0.0 **** 0.06
25870 H 20.02700542045863 52.22980655225393 15.627121732688394 H 0.0 **** 0.06
25871 C 20.85508104773369 42.65755850043442 32.15493550103582 C 0.0 **** -0.24
25872 H 20.116692164629583 42.69413870917931 32.957342332660346 H 0.0 **** 0.06
25873 H 21.059912253803674 43.66954626916214 31.80523733225877 H 0.0 **** 0.06
25874 H 20.46593537290083 42.05941446221439 31.33116235126616 H 0.0 **** 0.06
25875 H 21.775234891509413 42.20764054089604 32.528498915152525 H 0.0 **** 0.06
25876 C 68.6249660418861 47.81852892929186 29.51417763656721 C 0.0 **** -0.24
25877 H 68.13166679993301 47.22280851382152 28.745724033681704 H 0.0 **** 0.06
25878 H 67.92578182143582 48.01208060198792 30.328008126212104 H 0.0 **** 0.06
25879 H 68.95526683863507 48.764175185190254 29.084537790361395 H 0.0 **** 0.06
25880 H 69.48788287670588 47.2722430558855 29.897185763902023 H 0.0 **** 0.06
25881 C 107.8561208768192 81.98505695584754 33.94014385659378 C 0.0 **** -0.24
25882 H 107.349770393466 81.69029049143785 34.85894402613718 H 0.0 **** 0.06
25883 H 108.92421929351684 82.09280788299509 34.13251963517226 H 0.0 **** 0.06
25884 H 107.45238845916424 82.93547032954268 33.59170821394113 H 0.0 **** 0.06
25885 H 107.69883556836126 81.22229367787332 33.17765689379124 H 0.0 **** 0.06
25886 C 80.76343929109385 70.19413308171154 39.72115077479464 C 0.0 **** -0.24
25887 H 80.53440889237652 71.04764156592279 40.35863659298744 H 0.0 **** 0.06
25888 H 81.4513832455757 70.50274191875982 38.93427242093264 H 0.0 **** 0.06
25889 H 79.84302712503268 69.81754779109016 39.273587499361895 H 0.0 **** 0.06
25890 H 81.22365687089712 69.40806262896774 40.31914061256526 H 0.0 **** 0.06
25891 C 27.529321747106586 35.22185368677782 73.60849195537133 C 0.0 **** -0.24
25892 H 27.916333714552415 34.847503400177686 72.66111482324465 H 0.0 **** 0.06
25893 H 28.142262543046883 36.0574112415469 73.94597825020463 H 0.0 **** 0.06
25894 H 27.55811958349178 34.4258154719559 74.35193170694367 H 0.0 **** 0.06
25895 H 26.50083899844157 35.55694567522457 73.47357914518011 H 0.0 **** 0.06
25896 C 99.54596806144221 105.08586858475493 52.153372218959305 C 0.0 **** -0.24
25897 H 99.53576942047995 106.12297808421188 52.48916047753622 H 0.0 **** 0.06
25898 H 98.5472733688999 104.66151051996663 52.256663114583034 H 0.0 **** 0.06
25899 H 100.24807760968572 104.51418416187207 52.761098321936174 H 0.0 **** 0.06
25900 H 99.85288429744467 105.04505787421698 51.108784395930456 H 0.0 **** 0.06
25901 C 33.5273165312081 22.021756338767403 8.507363090110033 C 0.0 **** -0.24
25902 H 33.529146053179204 20.993256125968344 8.146314849717896 H 0.0 **** 0.06
25903 H 33.75912822676031 22.031960770043497 9.57286725346033 H 0.0 **** 0.06
25904 H 32.544125633954366 22.462106705431495 8.344513381961022 H 0.0 **** 0.06
25905 H 34.27796517860713 22.59682866284615 7.966490438452368 H 0.0 **** 0.06
25906 C 66.94275290519388 24.670170480613816 60.70837267722442 C 0.0 **** -0.24
25907 H 67.45808531006196 25.580614847829946 61.013533954461195 H 0.0 **** 0.06
25908 H 66.9752106374428 24.58069237807981 59.622044420687814 H 0.0 **** 0.06
25909 H 65.90418533417298 24.712819077271078 61.03827935992791 H 0.0 **** 0.06
25910 H 67.43147357346307 23.80695845356469 61.158853430755755 H 0.0 **** 0.06
25911 C 92.8547616398813 93.18086344759467 30.978263871943085 C 0.0 **** -0.24
25912 H 93.16170883572681 93.50224859097017 31.973253742519262 H 0.0 **** 0.06
25913 H 93.62664844493577 93.4497109893166 30.255841754382246 H 0.0 **** 0.06
25914 H 91.91930670107342 93.6712156141221 30.709396508500788 H 0.0 **** 0.06
25915 H 92.71404102104748 92.10004011828221 30.97362742456849 H 0.0 **** 0.06
25916 C 107.63199583590801 65.91146109207298 91.70249307064034 C 0.0 **** -0.24
25917 H 107.14487508194887 65.37879265782756 92.51853321434984 H 0.0 **** 0.06
25918 H 107.66423437929006 65.27215103923754 90.81905020248242 H 0.0 **** 0.06
25919 H 108.64699771506304 66.17714701788121 91.9964692511883 H 0.0 **** 0.06
25920 H 107.07066623017644 66.81745111187132 91.47406360579296 H 0.0 **** 0.06
25921 C 65.34173569492266 67.6765965387859 46.412073574800814 C 0.0 **** -0.24
25922 H 65.322668434698 67.12212406421165 45.47319358399619 H 0.0 **** 0.06
25923 H 65.50614953185548 66.98543863621592 47.238887169044254 H 0.0 **** 0.06
25924 H 64.39018130167464 68.1901988247684 46.549470054975394 H 0.0 **** 0.06
25925 H 66.14964197946658 68.40881281524219 46.383900897698204 H 0.0 **** 0.06
25926 C 108.24943882333322 17.324367394845396 41.73941205260135 C 0.0 **** -0.24
25927 H 107.43108400135671 16.6448827038395 41.97390878746201 H 0.0 **** 0.06
25928 H 108.97765581108801 16.812399824514813 41.110026550284516 H 0.0 **** 0.06
25929 H 108.73076933124077 17.64649952622706 42.66314076069487 H 0.0 **** 0.06
25930 H 107.85955234529409 18.193345347757173 41.21015155650275 H 0.0 **** 0.06
25931 C 70.38946367313177 50.656108031879285 44.90063115588964 C 0.0 **** -0.24
25932 H 69.41929909109474 50.282750560621025 45.226897449483744 H 0.0 **** 0.06
25933 H 70.59120656761456 51.612640017774424 45.383603482338 H 0.0 **** 0.06
25934 H 70.38335744299363 50.78791725922133 43.81880404958082 H 0.0 **** 0.06
25935 H 71.16471275679031 49.9401557329075 45.17510167954492 H 0.0 **** 0.06
25936 C 96.1854246715512 103.45361536680917 71.47244129219396 C 0.0 **** -0.24
25937 H 96.09840528272338 103.40487623412542 70.38741873822914 H 0.0 **** 0.06
25938 H 95.19263052189476 103.40882370167853 71.91990674901359 H 0.0 **** 0.06
25939 H 96.67045012288281 104.38798325421439 71.75646922850416 H 0.0 **** 0.06
25940 H 96.78183218372203 102.61273313201599 71.82751177462137 H 0.0 **** 0.06
25941 C 14.37988692586049 71.4800560292756 74.69195437442801 C 0.0 **** -0.24
25942 H 14.563069599162304 70.40531915939488 74.68259158650096 H 0.0 **** 0.06
25943 H 14.050121325123655 71.79997607599478 73.70361148536483 H 0.0 **** 0.06
25944 H 15.298297902456625 72.00279790822992 74.95668632543817 H 0.0 **** 0.06
25945 H 13.606573867935708 71.70973220989822 75.4251307789867 H 0.0 **** 0.06
25946 C 39.90780594228781 94.90926307552616 32.64839966900428 C 0.0 **** -0.24
25947 H 40.24642282699398 94.00837533049679 32.13666463885468 H 0.0 **** 0.06
25948 H 39.64292594785425 94.66428520514194 33.67623098838237 H 0.0 **** 0.06
25949 H 39.03572211772908 95.31263305016074 32.13411637049455 H 0.0 **** 0.06
25950 H 40.707244361225605 95.65096194474415 32.64480508796606 H 0.0 **** 0.06
25951 C 31.042204205786504 23.73458813229599 53.368781783335976 C 0.0 **** -0.24
25952 H 31.89466008325661 23.067839420327342 53.4938215142721 H 0.0 **** 0.06
25953 H 30.348596127438555 23.598107517764767 54.19865692705707 H 0.0 **** 0.06
25954 H 30.536933832538466 23.50648515982717 52.4302298388655 H 0.0 **** 0.06
25955 H 31.389788744808698 24.768047587563526 53.35206481792585 H 0.0 **** 0.06
25956 C 105.03371610818351 23.126716177515767 74.32067783633178 C 0.0 **** -0.24
25957 H 105.1636659990948 22.107786263857566 73.95744833913359 H 0.0 **** 0.06
25958 H 105.07991991212913 23.1334728833435 75.40996221122923 H 0.0 **** 0.06
25959 H 104.06627547382647 23.508246620551873 73.99463337776517 H 0.0 **** 0.06
25960 H 105.8265079219891 23.759197306411185 73.91913243605009 H 0.0 **** 0.06
25961 C 22.16146284206334 6.932202983904148 49.88582952943449 C 0.0 **** -0.24
25962 H 23.013358849446934 7.096451006848014 50.545701975098666 H 0.0 **** 0.06
25963 H 21.67068217284589 7.883977022325297 49.68153465348422 H 0.0 **** 0.06
25964 H 21.45572075831879 6.254448584303049 50.36596486553259 H 0.0 **** 0.06
25965 H 22.507256202521532 6.493212272678875 48.949775583608016 H 0.0 **** 0.06
25966 C 105.96459338551797 91.2428784647044 75.40593967552817 C 0.0 **** -0.24
25967 H 106.22066967330522 92.26125154609775 75.11311706678738 H 0.0 **** 0.06
25968 H 106.85895149454602 90.6202848608396 75.37388251409145 H 0.0 **** 0.06
25969 H 105.21968823114031 90.84396550710682 74.71774086464208 H 0.0 **** 0.06
25970 H 105.5590417992725 91.24763864174778 76.4171869578759 H 0.0 **** 0.06
25971 C 49.7148289596569 78.79396045038249 28.246694395404063 C 0.0 **** -0.24
25972 H 49.69297440160775 78.10970556836935 27.398450030295464 H 0.0 **** 0.06
25973 H 49.0425919325961 78.42899696481567 29.023739398276746 H 0.0 **** 0.06
25974 H 49.39505770273702 79.78447771804753 27.92348898699663 H 0.0 **** 0.06
25975 H 50.72975626913774 78.85055254260266 28.64045163777149 H 0.0 **** 0.06
25976 C 3.6071475930436634 85.13100476257546 78.55289709964495 C 0.0 **** -0.24
25977 H 2.5190825420235683 85.16798495023983 78.51160887993565 H 0.0 **** 0.06
25978 H 3.918533963552548 84.5212225103823 79.40110875026596 H 0.0 **** 0.06
25979 H 4.0010190952771865 86.14090136608888 78.66568865828121 H 0.0 **** 0.06
25980 H 3.9901140816706118 84.69257772437595 77.6311328752803 H 0.0 **** 0.06
25981 C 43.13605518448492 26.540129025891204 31.29872229112584 C 0.0 **** -0.24
25982 H 43.45536671546921 25.55449843586146 30.958902648869866 H 0.0 **** 0.06
25983 H 43.26006604975406 27.26119307834651 30.491614656964828 H 0.0 **** 0.06
25984 H 43.74081478507716 26.842416720363246 32.15337064601698 H 0.0 **** 0.06
25985 H 42.08678305821029 26.49975782387631 31.592601649414092 H 0.0 **** 0.06
25986 C 2.8877530227440644 20.83171572571436 17.931143852411395 C 0.0 **** -0.24
25987 H 3.795991134650322 21.018741480651926 18.50274746353412 H 0.0 **** 0.06
25988 H 3.1407780897565374 20.31022519729177 17.007954372938457 H 0.0 **** 0.06
25989 H 2.407501154356723 21.78162796167919 17.692309505937686 H 0.0 **** 0.06
25990 H 2.207229367763574 20.219049844160793 18.521404706056444 H 0.0 **** 0.06
25991 C 97.98855934981071 80.5954780410666 69.11917262446525 C 0.0 **** -0.24
25992 H 98.08968541180403 80.71251326184046 70.19822088485859 H 0.0 **** 0.06
25993 H 98.14131005717707 79.54977218532434 68.85171354134326 H 0.0 **** 0.06
25994 H 98.73403089481846 81.21238533330404 68.61671221337292 H 0.0 **** 0.06
25995 H 96.99115119846567 80.90788503107373 68.81245673646265 H 0.0 **** 0.06
25996 C 52.0706584141084 3.992639359224487 37.29637694836188 C 0.0 **** -0.24
25997 H 51.81158301501781 5.0505803573846535 37.32877464830224 H 0.0 **** 0.06
25998 H 53.09083412740814 3.856468077385001 37.65729637390123 H 0.0 **** 0.06
25999 H 51.99798489351598 3.632639124430513 36.26989982966657 H 0.0 **** 0.06
26000 H 51.38338133924246 3.4306644551284506 37.92873941574436 H 0.0 **** 0.06
26001 C 79.10871723507287 97.28654816520037 93.1427167868845 C 0.0 **** -0.24
26002 H 79.96683444984845 97.9501499304925 93.25093149476551 H 0.0 **** 0.06
26003 H 78.91434741111101 97.11398627885893 92.08346011187898 H 0.0 **** 0.06
26004 H 78.23388759328103 97.74556714144268 93.60288471779387 H 0.0 **** 0.06
26005 H 79.32078278036533 96.33667139393265 93.63358559987367 H 0.0 **** 0.06
26006 C 4.071172032179163 50.91373748549506 35.88317014140705 C 0.0 **** -0.24
26007 H 4.825779891515879 51.02149358953723 36.6630550826587 H 0.0 **** 0.06
26008 H 3.078038491904408 50.9483827094269 36.33107788260426 H 0.0 **** 0.06
26009 H 4.207676139159332 49.959637483227795 35.3747533396031 H 0.0 **** 0.06
26010 H 4.173950344327807 51.72608286123105 35.1636984792346 H 0.0 **** 0.06
26011 C 100.86463577057762 104.78296586147084 85.33176893679796 C 0.0 **** -0.24
26012 H 99.92131895554274 104.81525669147872 85.87650697350429 H 0.0 **** 0.06
26013 H 101.64109150881593 104.37105810806581 85.97675062249708 H 0.0 **** 0.06
26014 H 101.14155275970256 105.7907931238704 85.02523677317089 H 0.0 **** 0.06
26015 H 100.75255737123705 104.15224129052865 84.45019036159384 H 0.0 **** 0.06
26016 C 4.271606223659758 24.696176338150934 76.73618364418155 C 0.0 **** -0.24
26017 H 4.981741327686633 25.518452912515244 76.65342984183621 H 0.0 **** 0.06
26018 H 3.2861023003136545 25.033185934753476 76.4159300334223 H 0.0 **** 0.06
26019 H 4.222904552148856 24.361188489099902 77.77297206121101 H 0.0 **** 0.06
26020 H 4.597869565821382 23.87091083084212 76.10290885437509 H 0.0 **** 0.06
26021 C 25.800659067708892 87.0457511320563 108.1554784085967 C 0.0 **** -0.24
26022 H 26.544120459120677 86.98652674063904 107.35945668591636 H 0.0 **** 0.06
26023 H 26.165254536145312 86.51100539340835 109.03240200366947 H 0.0 **** 0.06
26024 H 24.868190996555484 86.59548204868561 107.81601724590553 H 0.0 **** 0.06
26025 H 25.627418975339424 88.09126496318434 108.41267409293118 H 0.0 **** 0.06
26026 C 98.710180598322 94.83782625581544 103.84472005528704 C 0.0 **** -0.24
26027 H 97.765682656799 95.33588483030891 104.06541259004052 H 0.0 **** 0.06
26028 H 99.40020998474623 95.55186564763335 103.39228643111649 H 0.0 **** 0.06
26029 H 98.53294150448252 94.01462807370763 103.15203400909786 H 0.0 **** 0.06
26030 H 99.14150712716085 94.4500441803521 104.76700108467023 H 0.0 **** 0.06
26031 C 17.553742295488547 107.83342314076532 108.1367783645802 C 0.0 **** -0.24
26032 H 17.96810203658643 108.53771901615022 107.41609803400738 H 0.0 **** 0.06
26033 H 18.117055012950942 107.89272755853693 109.0684530229433 H 0.0 **** 0.06
26034 H 17.62037766961447 106.82229447296243 107.7351673489103 H 0.0 **** 0.06
26035 H 16.50943446280226 108.0809515154117 108.32739505245972 H 0.0 **** 0.06
26036 C 27.17697984212964 55.37717154236719 73.0220458855988 C 0.0 **** -0.24
26037 H 26.59637597594636 56.29924678272525 72.98874000936667 H 0.0 **** 0.06
26038 H 28.18991169927901 55.573352094682264 72.67110702217872 H 0.0 **** 0.06
26039 H 26.70846765957819 54.630637622075966 72.381231347572 H 0.0 **** 0.06
26040 H 27.21175223095645 55.007304574736224 74.04635254211473 H 0.0 **** 0.06
26041 C 86.67496665898048 2.213849776076316 84.65464932885135 C 0.0 **** -0.24
26042 H 87.38711798087105 1.7934735772210502 85.36448324712269 H 0.0 **** 0.06
26043 H 87.17386566200373 2.387007857358199 83.70086059359943 H 0.0 **** 0.06
26044 H 86.29134098663721 3.1578175488089357 85.04031627767868 H 0.0 **** 0.06
26045 H 85.84968276223005 1.5164318407046977 84.51195187302034 H 0.0 **** 0.06
26046 C 102.14668282970501 97.54088640693308 59.500208445946896 C 0.0 **** -0.24
26047 H 103.07349184829668 98.06614357453282 59.267290295667976 H 0.0 **** 0.06
26048 H 101.39261640575042 98.26017028308107 59.82242495957229 H 0.0 **** 0.06
26049 H 102.32832557445495 96.8220206318978 60.2994648487354 H 0.0 **** 0.06
26050 H 101.79380027520865 97.01643914565436 58.61276448269598 H 0.0 **** 0.06
26051 C 102.29043697378496 37.3210142469282 50.29092536842447 C 0.0 **** -0.24
26052 H 102.17434218724551 36.53945688595013 51.04065523394843 H 0.0 **** 0.06
26053 H 103.33721609238086 37.62143910527658 50.237753188876155 H 0.0 **** 0.06
26054 H 101.67949815662807 38.18139945377095 50.56465322120016 H 0.0 **** 0.06
26055 H 101.97067658811399 36.94341067944919 49.32011041912136 H 0.0 **** 0.06
26056 C 89.06045831028129 59.433088272043506 99.62497177782267 C 0.0 **** -0.24
26057 H 88.27333535721614 60.05195060770279 99.19490236438136 H 0.0 **** 0.06
26058 H 88.61622197145863 58.688936116592004 100.28717762464515 H 0.0 **** 0.06
26059 H 89.74760542075882 60.06103823167052 100.19289396082608 H 0.0 **** 0.06
26060 H 89.60418255910415 58.92971424255404 98.82603226038071 H 0.0 **** 0.06
26061 C 53.16500131319113 92.11106870370767 62.20163484041949 C 0.0 **** -0.24
26062 H 52.33005774106182 91.6895480904924 62.76220822046291 H 0.0 **** 0.06
26063 H 52.807876935519275 92.47314269265055 61.23681799857009 H 0.0 **** 0.06
26064 H 53.92207541947008 91.34297179347931 62.04434915749442 H 0.0 **** 0.06
26065 H 53.597776874811984 92.93876813475089 62.76339886683877 H 0.0 **** 0.06
26066 C 29.31514903550419 94.30164013331716 42.02986507729736 C 0.0 **** -0.24
26067 H 29.16803713340971 94.65010377503324 43.05213120786988 H 0.0 **** 0.06
26068 H 29.87777063357953 93.36735821353125 42.041448137256324 H 0.0 **** 0.06
26069 H 29.869072623752288 95.05218958204364 41.46548747742612 H 0.0 **** 0.06
26070 H 28.34576276092747 94.135334523126 41.55967301534449 H 0.0 **** 0.06
26071 C 99.84563805229158 74.17866034785422 1.013177198753887 C 0.0 **** -0.24
26072 H 99.3174978757562 73.2993726156979 1.380394904130311 H 0.0 **** 0.06
26073 H 99.29226461340602 75.0763841610805 1.289520599479399 H 0.0 **** 0.06
26074 H 99.93051257888698 74.12426263932362 -0.07193710133353548 H 0.0 **** 0.06
26075 H 100.84180113395723 74.21498507553184 1.4539293777814413 H 0.0 **** 0.06
26076 C 63.87214080306423 109.53340204747484 87.12304258618374 C 0.0 **** -0.24
26077 H 63.98606762178444 108.75299193361646 87.87556342152358 H 0.0 **** 0.06
26078 H 63.22470574820292 109.17439202549352 86.32303226380355 H 0.0 **** 0.06
26079 H 64.84895205123021 109.78904162113929 86.7143324437432 H 0.0 **** 0.06
26080 H 63.427559698442835 110.41720693406283 87.58107691873857 H 0.0 **** 0.06
26081 C 47.1042279013686 42.19086169388186 37.95795299403238 C 0.0 **** -0.24
26082 H 46.493300842916 42.626750985879426 37.16757744475041 H 0.0 **** 0.06
26083 H 48.0583909760347 42.71786394606988 38.01114565728457 H 0.0 **** 0.06
26084 H 47.282289449453344 41.13843645835533 37.740386913073934 H 0.0 **** 0.06
26085 H 46.584446900495976 42.28331223480927 38.91160989031539 H 0.0 **** 0.06
26086 C 20.770391852544982 19.957281473016536 42.82467779184522 C 0.0 **** -0.24
26087 H 20.344514963123537 18.972953131261363 43.020400753471705 H 0.0 **** 0.06
26088 H 21.85725168172073 19.885041229138693 42.799048228339444 H 0.0 **** 0.06
26089 H 20.469740229915864 20.645914478659364 43.61405794748646 H 0.0 **** 0.06
26090 H 20.408205554914954 20.32455739258961 41.86374677702349 H 0.0 **** 0.06
26091 C 34.095228118076875 20.73142591492268 24.96032931611744 C 0.0 **** -0.24
26092 H 33.066989226068756 20.628027232727163 24.612912585551474 H 0.0 **** 0.06
26093 H 34.09769601258347 21.156272977670255 25.96417380167039 H 0.0 **** 0.06
26094 H 34.64216130250813 21.38914979461765 24.28524915655573 H 0.0 **** 0.06
26095 H 34.57181756199529 19.751311940603216 24.97874025011174 H 0.0 **** 0.06
26096 C 73.0890265485533 65.29649976184726 29.337567005583963 C 0.0 **** -0.24
26097 H 73.98634250640407 65.01969112042383 29.8909103939705 H 0.0 **** 0.06
26098 H 73.35617993190982 65.5408136641986 28.309604149430868 H 0.0 **** 0.06
26099 H 72.62503913101443 66.1631763203535 29.809095705459356 H 0.0 **** 0.06
26100 H 72.38770905626797 64.46144289039256 29.342538293822884 H 0.0 **** 0.06
26101 C 44.49286926666991 39.60608355541615 65.14581829720225 C 0.0 **** -0.24
26102 H 44.66960378958271 40.67261750828581 65.28886427964295 H 0.0 **** 0.06
26103 H 44.61287303564637 39.35627859751915 64.0917659131793 H 0.0 **** 0.06
26104 H 43.4797699957993 39.3602143865522 65.4655465088664 H 0.0 **** 0.06
26105 H 45.209298804478976 39.03734958512126 65.7389610066615 H 0.0 **** 0.06
26106 C 108.16980971586041 17.926609994989946 33.5788565865858 C 0.0 **** -0.24
26107 H 108.16526663670787 18.992078563350134 33.808037600238606 H 0.0 **** 0.06
26108 H 108.0755527435726 17.355599693176387 34.5028802627707 H 0.0 **** 0.06
26109 H 109.10575679633799 17.66558853484173 33.084093245466136 H 0.0 **** 0.06
26110 H 107.33397324931171 17.693913991713885 32.91955862515681 H 0.0 **** 0.06
26111 C 82.58127092341908 46.33443946647341 4.45783677352528 C 0.0 **** -0.24
26112 H 82.16639859520336 46.86017175113742 3.5971176315714395 H 0.0 **** 0.06
26113 H 82.23174408634065 46.80840437990172 5.37554759891667 H 0.0 **** 0.06
26114 H 83.66954407625374 46.37707201171927 4.418800209951089 H 0.0 **** 0.06
26115 H 82.25696629576021 45.2936858736157 4.439306808124979 H 0.0 **** 0.06
26116 C 27.370241308690353 81.9248314819448 38.252776634359066 C 0.0 **** -0.24
26117 H 26.91289091782221 82.83823703226818 38.63292105206398 H 0.0 **** 0.06
26118 H 26.590934440608777 81.2478593677115 37.90106868020729 H 0.0 **** 0.06
26119 H 27.936901711849572 81.44431075234388 39.04966346838876 H 0.0 **** 0.06
26120 H 28.039544200891555 82.16961517187642 37.42763635619781 H 0.0 **** 0.06
26121 C 65.19157190984959 1.520381026185194 97.23099600947818 C 0.0 **** -0.24
26122 H 64.5513275099475 0.6451741157519608 97.1193499228744 H 0.0 **** 0.06
26123 H 64.6151673891012 2.4210512062141847 97.0208463145243 H 0.0 **** 0.06
26124 H 66.02573853151972 1.4515825718182596 96.5327627511611 H 0.0 **** 0.06
26125 H 65.57422237683204 1.5628424113146622 98.25056871257433 H 0.0 **** 0.06
26126 C 27.677103747237908 108.09530837285746 76.03996561869022 C 0.0 **** -0.24
26127 H 27.17827541262369 107.45510748403521 76.76727295131212 H 0.0 **** 0.06
26128 H 28.47665145154187 107.5368179129267 75.55244866963776 H 0.0 **** 0.06
26129 H 28.09694826522275 108.96330268866137 76.54796197105094 H 0.0 **** 0.06
26130 H 26.9557314402237 108.4252758501118 75.29127649384588 H 0.0 **** 0.06
26131 C 46.75627129365344 52.89287340145154 19.5019326505288 C 0.0 **** -0.24
26132 H 46.6259621533369 53.221566555064555 20.53263394843303 H 0.0 **** 0.06
26133 H 47.346758353362276 53.63028370755234 18.9571574749651 H 0.0 **** 0.06
26134 H 45.77945997971213 52.788718896718194 19.028505347844245 H 0.0 **** 0.06
26135 H 47.27134228656604 51.932522975391635 19.489371749086644 H 0.0 **** 0.06
26136 C 55.29612855416485 64.66569558904018 94.30935529677397 C 0.0 **** -0.24
26137 H 55.38567231229342 65.34754886112734 93.46400988410264 H 0.0 **** 0.06
26138 H 54.870103605346685 63.72082003021754 93.96958792748066 H 0.0 **** 0.06
26139 H 54.64554550465667 65.106729789235 95.06430653650705 H 0.0 **** 0.06
26140 H 56.28200014123729 64.48741821820661 94.73828913401483 H 0.0 **** 0.06
26141 C 26.097023848005392 52.495841333268444 59.81594630151767 C 0.0 **** -0.24
26142 H 25.088909211557592 52.89397193116178 59.69742285569032 H 0.0 **** 0.06
26143 H 26.466694346746408 52.73757211341085 60.81237131535943 H 0.0 **** 0.06
26144 H 26.752616288050632 52.94100332074061 59.06694545777992 H 0.0 **** 0.06
26145 H 26.07803514479275 51.41458516473228 59.686395928541174 H 0.0 **** 0.06
26146 C 81.78666576170554 56.48745936940754 88.43397408351473 C 0.0 **** -0.24
26147 H 81.3052599980705 55.55333669919735 88.14696341791301 H 0.0 **** 0.06
26148 H 81.0886817640255 57.09358869957702 89.01278883078817 H 0.0 **** 0.06
26149 H 82.08411109854038 57.03245324187707 87.53724620465135 H 0.0 **** 0.06
26150 H 82.6684590354231 56.27146630368559 89.03690729988318 H 0.0 **** 0.06
26151 C 45.1140989046923 105.49412728254725 65.7515485006308 C 0.0 **** -0.24
26152 H 44.74212745487932 105.56966306533764 64.7302559861946 H 0.0 **** 0.06
26153 H 45.796102176780494 106.32177195606008 65.95117261570152 H 0.0 **** 0.06
26154 H 45.64368485619559 104.54879558642355 65.87646706466796 H 0.0 **** 0.06
26155 H 44.27737936308745 105.53669320948568 66.44764356059426 H 0.0 **** 0.06
26156 C 97.63329029666852 53.75696389183395 73.2250382768384 C 0.0 **** -0.24
26157 H 98.01979159845756 52.815670909128755 73.61704998154568 H 0.0 **** 0.06
26158 H 98.34355994083388 54.17017460316222 72.50866838685161 H 0.0 **** 0.06
26159 H 97.49310545191615 54.461211908457585 74.04546976974342 H 0.0 **** 0.06
26160 H 96.67807756315783 53.58007409857203 72.73085967576935 H 0.0 **** 0.06
26161 C 57.0154369104179 60.42157685256632 51.778933082477494 C 0.0 **** -0.24
26162 H 56.929233697051494 61.487515183002614 51.5693780333751 H 0.0 **** 0.06
26163 H 58.068834436334875 60.142260437572304 51.80883088507895 H 0.0 **** 0.06
26164 H 56.51135480331844 59.855850291479584 50.995112585556114 H 0.0 **** 0.06
26165 H 56.55266499403884 60.2022450841925 52.74007848831735 H 0.0 **** 0.06
26166 C 12.004989271312944 88.79329232665776 103.23149266309471 C 0.0 **** -0.24
26167 H 12.26653267273268 88.9662590632228 104.27625986571351 H 0.0 **** 0.06
26168 H 12.533110145708747 87.91190472949006 102.86668566555855 H 0.0 **** 0.06
26169 H 12.291455588941197 89.66080603769791 102.63723778724881 H 0.0 **** 0.06
26170 H 10.93001703540237 88.63384972777797 103.14766779432966 H 0.0 **** 0.06
26171 C 88.35006754217613 45.84980855702679 5.078032574764848 C 0.0 **** -0.24
26172 H 88.28922418740353 46.02347719036135 4.0029692135226185 H 0.0 **** 0.06
26173 H 89.31765408642528 46.19242872897854 5.446504587241208 H 0.0 **** 0.06
26174 H 88.24184160946155 44.78389715199933 5.279638399032393 H 0.0 **** 0.06
26175 H 87.55361506415872 46.398371454257074 5.579610084942189 H 0.0 **** 0.06
26176 C 103.54711529181407 80.85344580414022 84.0795072449076 C 0.0 **** -0.24
26177 H 102.94121423062751 80.46397605684803 83.2625298940682 H 0.0 **** 0.06
26178 H 104.4158424510469 80.21123624725838 84.22613567607165 H 0.0 **** 0.06
26179 H 102.95282537800489 80.87635931932434 84.99336410953777 H 0.0 **** 0.06
26180 H 103.87798773344178 81.8634729417143 83.83624297078542 H 0.0 **** 0.06
26181 C 57.30590234104653 40.92873248090001 0.8376607140911574 C 0.0 **** -0.24
26182 H 56.46997678304683 40.663515799182136 1.4851338393760898 H 0.0 **** 0.06
26183 H 58.21150411896093 41.03247373726319 1.436361887644182 H 0.0 **** 0.06
26184 H 57.09166416669535 41.87318913447655 0.3364536239973148 H 0.0 **** 0.06
26185 H 57.450793311137886 40.146786273829264 0.09178764718588184 H 0.0 **** 0.06
26186 C 0.11427466943857212 38.265743490092404 107.6847565557618 C 0.0 **** -0.24
26187 H -0.6448368560450319 38.41286264710135 108.4535475221773 H 0.0 **** 0.06
26188 H 0.17616588982106407 37.20584547144051 107.4341540317728 H 0.0 **** 0.06
26189 H 1.079464392217659 38.608620295259584 108.0570791885232 H 0.0 **** 0.06
26190 H -0.15494192481229163 38.83462521855313 106.79488079937337 H 0.0 **** 0.06
26191 C 21.51191885496062 34.65380367846643 106.14575837881634 C 0.0 **** -0.24
26192 H 21.02480190791165 33.899717577401276 106.76502258780313 H 0.0 **** 0.06
26193 H 21.81381602063493 34.20533111426798 105.19878247101983 H 0.0 **** 0.06
26194 H 22.391248462697494 35.036093623822126 106.66337470569827 H 0.0 **** 0.06
26195 H 20.81697677344394 35.471827104574174 105.95636979762877 H 0.0 **** 0.06
26196 C 18.34959106045244 86.48099447814684 20.165332098368225 C 0.0 **** -0.24
26197 H 19.241092007874045 86.29554914867686 19.56648742917494 H 0.0 **** 0.06
26198 H 18.444064373864478 85.97199474854636 21.124923661114266 H 0.0 **** 0.06
26199 H 17.473569352383606 86.10472903428843 19.637629422383355 H 0.0 **** 0.06
26200 H 18.241077135698447 87.55314120168163 20.331356286709465 H 0.0 **** 0.06
26201 C 81.86136247833127 3.8062539986813135 81.40670268312658 C 0.0 **** -0.24
26202 H 81.08355378137873 3.0605342523902834 81.57456158715019 H 0.0 **** 0.06
26203 H 81.44431142308406 4.803509159730794 81.54602393917332 H 0.0 **** 0.06
26204 H 82.2423102264217 3.70992107145878 80.39022119260756 H 0.0 **** 0.06
26205 H 82.67349426459776 3.6484384005489687 82.11594948921476 H 0.0 **** 0.06
26206 C 107.22892519920097 93.37194225969722 24.51240708033123 C 0.0 **** -0.24
26207 H 107.36360339182568 92.65052890112509 23.706654389062948 H 0.0 **** 0.06
26208 H 106.17322036504265 93.42496235595496 24.77915612813922 H 0.0 **** 0.06
26209 H 107.57117371959671 94.35223328605923 24.182218847632953 H 0.0 **** 0.06
26210 H 107.80841394756078 93.05792582606068 25.381518359613153 H 0.0 **** 0.06
26211 C 36.36718496642436 96.98168122528125 88.20275605911615 C 0.0 **** -0.24
26212 H 35.895413075984266 97.64121957949874 87.47469817507039 H 0.0 **** 0.06
26213 H 36.17761485658369 95.94351341693044 87.9297915096846 H 0.0 **** 0.06
26214 H 35.95327606893841 97.17913306227115 89.19237272055591 H 0.0 **** 0.06
26215 H 37.44168321363273 97.16493515796833 88.21522141983809 H 0.0 **** 0.06
26216 C 33.46125774216409 50.59203515338538 53.10848445341297 C 0.0 **** -0.24
26217 H 34.48059125151002 50.668016861126034 52.728487223016636 H 0.0 **** 0.06
26218 H 33.00766468867582 51.58222413553648 53.13108792381479 H 0.0 **** 0.06
26219 H 33.48002541150788 50.1768724985551 54.11645848023038 H 0.0 **** 0.06
26220 H 32.879798052664 49.93993212090703 52.457191048845424 H 0.0 **** 0.06
26221 C 15.637961244758614 93.17210393867578 21.857688038335112 C 0.0 **** -0.24
26222 H 15.782221464991522 93.46137415276847 20.816813605089322 H 0.0 **** 0.06
26223 H 16.57911203546081 93.27638758049584 22.397424980998096 H 0.0 **** 0.06
26224 H 15.305134788491628 92.13501229223439 21.903843732200357 H 0.0 **** 0.06
26225 H 14.884732793331594 93.81626443880548 22.312225223690945 H 0.0 **** 0.06
26226 C 39.50718738835502 2.711227988366673 56.586427070772096 C 0.0 **** -0.24
26227 H 38.728804879954765 2.045512520755153 56.21342378075933 H 0.0 **** 0.06
26228 H 39.51936802929785 3.6245750316189174 55.992601660169605 H 0.0 **** 0.06
26229 H 40.47495753012387 2.215414817289499 56.510703115063684 H 0.0 **** 0.06
26230 H 39.30603829740079 2.957009011768335 57.629228396553785 H 0.0 **** 0.06
26231 C 19.094426688413478 102.0661142156278 36.68942272680755 C 0.0 **** -0.24
26232 H 18.33572484213613 101.633815749275 37.34085909914154 H 0.0 **** 0.06
26233 H 18.699581655234567 102.14965361629304 35.676962641457436 H 0.0 **** 0.06
26234 H 19.97618640050689 101.42460878846708 36.68399062140446 H 0.0 **** 0.06
26235 H 19.36768583163996 103.05491850162738 37.05671600014966 H 0.0 **** 0.06
26236 C 90.86025658121093 46.66848952109092 32.503945081197344 C 0.0 **** -0.24
26237 H 91.15899345192696 45.62221154182885 32.574610325539425 H 0.0 **** 0.06
26238 H 90.80878270283586 46.96137452147309 31.455461575268117 H 0.0 **** 0.06
26239 H 91.59109357654415 47.290060267654496 33.0196473919641 H 0.0 **** 0.06
26240 H 89.88126945826099 46.798028492515925 32.96606385747231 H 0.0 **** 0.06
26241 C 79.81595725207484 66.06581742577174 30.93115108104743 C 0.0 **** -0.24
26242 H 78.87229461990108 66.54388060666628 30.664887328203378 H 0.0 **** 0.06
26243 H 79.70381711783057 65.54808161219046 31.884110740964758 H 0.0 **** 0.06
26244 H 80.59456665801042 66.82272089097836 31.01801494143551 H 0.0 **** 0.06
26245 H 80.09037263573623 65.34897556849381 30.15722807893087 H 0.0 **** 0.06
26246 C 52.420672870523276 92.98707369703291 82.74763484511416 C 0.0 **** -0.24
26247 H 53.01263337850821 93.8782167068741 82.95601850595006 H 0.0 **** 0.06
26248 H 51.949479514667075 92.6409188135504 83.66879042041467 H 0.0 **** 0.06
26249 H 53.068888160086715 92.20440083891255 82.35416823563392 H 0.0 **** 0.06
26250 H 51.65100021774833 93.22544183029952 82.01381096662607 H 0.0 **** 0.06
26251 C 16.23899087091877 9.01508060864171 40.22930692919357 C 0.0 **** -0.24
26252 H 17.194503955044297 9.263441202598244 40.69052226973224 H 0.0 **** 0.06
26253 H 15.429223847067192 9.46083785410923 40.80742693005686 H 0.0 **** 0.06
26254 H 16.117089844953966 7.932058500315463 40.20732682766396 H 0.0 **** 0.06
26255 H 16.216747446607428 9.40404048047452 39.211294496527444 H 0.0 **** 0.06
26256 C 50.8078724732041 105.79484485078054 34.31972809076461 C 0.0 **** -0.24
26257 H 50.77378961024891 106.8831938585681 34.363950654779785 H 0.0 **** 0.06
26258 H 50.46727262688637 105.45965317885323 33.34012095236261 H 0.0 **** 0.06
26259 H 50.15970108405287 105.37993883681263 35.092578519982396 H 0.0 **** 0.06
26260 H 51.83077881424123 105.45734072377604 34.484989756214134 H 0.0 **** 0.06
26261 C 13.253599299747094 5.825532897313485 94.38361168224255 C 0.0 **** -0.24
26262 H 14.138150246828658 6.267059862992603 94.84255331147182 H 0.0 **** 0.06
26263 H 12.36288513557664 6.1592931340161545 94.91647965450575 H 0.0 **** 0.06
26264 H 13.321969758407374 4.738978143092659 94.4346518508665 H 0.0 **** 0.06
26265 H 13.192014351492858 6.137429379069305 93.3412280105419 H 0.0 **** 0.06
26266 C 102.76735158738387 41.779667882544956 24.319784103274376 C 0.0 **** -0.24
26267 H 102.19997299893396 41.420365254008914 25.178051543472037 H 0.0 **** 0.06
26268 H 102.38989841542934 42.75718227144172 24.017758207992806 H 0.0 **** 0.06
26269 H 102.65986504272846 41.07713512837495 23.493659288329305 H 0.0 **** 0.06
26270 H 103.82042250026012 41.865050173159375 24.590810780145134 H 0.0 **** 0.06
26271 C 3.6551740352460484 106.53542640170737 20.53804096614661 C 0.0 **** -0.24
26272 H 3.86959719659491 105.82853660088989 19.736404271570308 H 0.0 **** 0.06
26273 H 3.3985641764025587 107.50430676973748 20.109216883072378 H 0.0 **** 0.06
26274 H 4.533411022174974 106.64048261136715 21.174370133156486 H 0.0 **** 0.06
26275 H 2.818196229464931 106.16800588712485 21.132181692530764 H 0.0 **** 0.06
26276 C 81.39983487346854 13.545957338326446 52.687447087029625 C 0.0 **** -0.24
26277 H 81.84601231389803 14.532989806913832 52.566680988722794 H 0.0 **** 0.06
26278 H 80.3614586260384 13.574370990861865 52.357393621993594 H 0.0 **** 0.06
26279 H 81.44026084845177 13.255211568578616 53.7369986496459 H 0.0 **** 0.06
26280 H 81.95160392887084 12.821869725242351 52.08744047541677 H 0.0 **** 0.06
26281 C 14.347157241973601 60.11415479866264 66.79186512882457 C 0.0 **** -0.24
26282 H 14.055663930773324 59.36237914261895 66.0589409603643 H 0.0 **** 0.06
26283 H 15.416278838746528 60.309791963154396 66.70612714752812 H 0.0 **** 0.06
26284 H 14.123393157605172 59.750787753350835 67.79406411570302 H 0.0 **** 0.06
26285 H 13.794453787639217 61.035859206380366 66.60664957803077 H 0.0 **** 0.06
26286 C 107.08368630481209 99.50854298533805 76.2827973901631 C 0.0 **** -0.24
26287 H 107.00970340580687 100.50296345561678 76.72418426702002 H 0.0 **** 0.06
26288 H 107.52929693470742 99.58476852854633 75.29085298253153 H 0.0 **** 0.06
26289 H 106.08773828424097 99.0729658160679 76.20144051578019 H 0.0 **** 0.06
26290 H 107.70661313144711 98.87648368843588 76.91467397059294 H 0.0 **** 0.06
26291 C 99.89096189825351 81.8482035277203 55.48136583000053 C 0.0 **** -0.24
26292 H 100.2271424773117 82.05330838379739 54.46450864817396 H 0.0 **** 0.06
26293 H 100.66602091708299 81.29902262604786 56.015535929942814 H 0.0 **** 0.06
26294 H 98.97932957221283 81.25171610220139 55.44961515179526 H 0.0 **** 0.06
26295 H 99.69233944638854 82.7895248179182 55.994236414916145 H 0.0 **** 0.06
26296 C 39.421505019852816 67.47116791153161 52.06496932099858 C 0.0 **** -0.24
26297 H 38.828749824693034 68.30598926779277 51.68940240794384 H 0.0 **** 0.06
26298 H 40.26732702644665 67.29823933315112 51.39957191958805 H 0.0 **** 0.06
26299 H 38.80156624368051 66.5766698921405 52.105871306289785 H 0.0 **** 0.06
26300 H 39.786288902846536 67.70687087501358 53.06482016290576 H 0.0 **** 0.06
26301 C 71.74099886988789 100.42578447382063 36.55014938989751 C 0.0 **** -0.24
26302 H 71.26924753632179 99.72925173946744 35.85700243908059 H 0.0 **** 0.06
26303 H 72.18216295663615 101.25107347527941 35.99111792122147 H 0.0 **** 0.06
26304 H 72.51993707694635 99.90855585422125 37.11046509911546 H 0.0 **** 0.06
26305 H 70.99299511133127 100.81299758072834 37.241470020254326 H 0.0 **** 0.06
26306 C 74.61625553624518 35.64885258046692 19.941406993217754 C 0.0 **** -0.24
26307 H 75.60520646215132 36.002338871054306 19.6489443595691 H 0.0 **** 0.06
26308 H 74.65704051343282 35.25574134246654 20.95742915009356 H 0.0 **** 0.06
26309 H 74.29704107655711 34.86039124666692 19.25903556098274 H 0.0 **** 0.06
26310 H 73.9077909771661 36.475519872149825 19.8985587391318 H 0.0 **** 0.06
26311 C 58.77898487357999 52.36189028223836 61.82745671303542 C 0.0 **** -0.24
26312 H 58.022939931706674 52.023023034910096 62.53499458869001 H 0.0 **** 0.06
26313 H 58.6424746381978 51.847558415845754 60.87590241809946 H 0.0 **** 0.06
26314 H 59.77112899318567 52.13991761892851 62.22256445370428 H 0.0 **** 0.06
26315 H 58.68051431675531 53.437385452612546 61.67716834224103 H 0.0 **** 0.06
26316 C 23.19379918663398 87.61995263049802 1.953139065765086 C 0.0 **** -0.24
26317 H 24.256362049623107 87.55485375576046 2.1844031908754005 H 0.0 **** 0.06
26318 H 23.06466223887344 88.0303236654655 0.951229306645331 H 0.0 **** 0.06
26319 H 22.702891712411827 88.26814563190378 2.678617195222955 H 0.0 **** 0.06
26320 H 22.75096972029661 86.62432778416444 1.9978174149416077 H 0.0 **** 0.06
26321 C 35.86634604129054 38.263434616462945 47.91471230097872 C 0.0 **** -0.24
26322 H 34.94459628508599 38.70612202902973 47.53741255613244 H 0.0 **** 0.06
26323 H 35.851611905756016 38.26596203644591 49.004836791633295 H 0.0 **** 0.06
26324 H 36.718357819189976 38.84379967280543 47.561113405274114 H 0.0 **** 0.06
26325 H 35.950455795179664 37.238588662802 47.554333136765365 H 0.0 **** 0.06
26326 C 61.20297715747313 38.54002829407807 1.7195727986611367 C 0.0 **** -0.24
26327 H 60.657560534237064 37.62226463587177 1.939571529096055 H 0.0 **** 0.06
26328 H 60.738967745212676 39.044710962986414 0.8720148093067843 H 0.0 **** 0.06
26329 H 62.23771199990506 38.29801657581157 1.47546414724364 H 0.0 **** 0.06
26330 H 61.178821517945835 39.19465840943553 2.590565199951139 H 0.0 **** 0.06
26331 C 27.90691232769865 21.05175269511358 40.80404977214287 C 0.0 **** -0.24
26332 H 27.735545780883854 20.142911419035237 40.22558542762605 H 0.0 **** 0.06
26333 H 27.674182941746267 20.86260172910962 41.85244419044843 H 0.0 **** 0.06
26334 H 27.26636484193756 21.848212545629536 40.42716992624671 H 0.0 **** 0.06
26335 H 28.9512998191654 21.349248779324142 40.711801770251526 H 0.0 **** 0.06
26336 C 96.74299750856645 87.5423986143134 77.29353573069497 C 0.0 **** -0.24
26337 H 96.32511538956845 87.28520142966332 78.26686455912869 H 0.0 **** 0.06
26338 H 97.82948194519798 87.44957261808068 77.33030367027183 H 0.0 **** 0.06
26339 H 96.47447899414014 88.56830373907306 77.04313344391912 H 0.0 **** 0.06
26340 H 96.34591377745481 86.86672896676947 76.5374406365899 H 0.0 **** 0.06
26341 C 24.604072919727912 59.911263182053375 67.9955483420463 C 0.0 **** -0.24
26342 H 24.745920193411592 59.17619580820377 67.2024031847103 H 0.0 **** 0.06
26343 H 25.292597473708497 59.69956376130568 68.8135906122456 H 0.0 **** 0.06
26344 H 23.577643950692334 59.85738564108675 68.3605698819303 H 0.0 **** 0.06
26345 H 24.79866615878433 60.909585135068596 67.60441974085882 H 0.0 **** 0.06
26346 C 61.16495915867651 19.26515124328543 59.66273192923978 C 0.0 **** -0.24
26347 H 61.60985684473751 19.7078309816103 60.55334099671852 H 0.0 **** 0.06
26348 H 61.318077701695785 19.928722200718383 58.8113582247748 H 0.0 **** 0.06
26349 H 60.09560285812816 19.122133900095974 59.82422527952721 H 0.0 **** 0.06
26350 H 61.63410885551265 18.30172575152622 59.46308286346513 H 0.0 **** 0.06
26351 C 31.26340793935327 24.632741944948293 102.03790326916216 C 0.0 **** -0.24
26352 H 31.790321842578948 23.802074738301428 101.56943070359716 H 0.0 **** 0.06
26353 H 31.901113697652754 25.085406922681187 102.79710392776934 H 0.0 **** 0.06
26354 H 30.34729484074324 24.267451633937526 102.50225620986082 H 0.0 **** 0.06
26355 H 31.01547993095346 25.377376519025603 101.280856398123 H 0.0 **** 0.06
26356 C 83.18487284932198 14.20785010471073 19.020900891255877 C 0.0 **** -0.24
26357 H 83.0034552323521 13.666640432761284 18.09313339517496 H 0.0 **** 0.06
26358 H 83.04455790010302 15.275755186407252 18.851873250174094 H 0.0 **** 0.06
26359 H 84.20712209843657 14.0240261594289 19.35361121789049 H 0.0 **** 0.06
26360 H 82.48679272960078 13.865110276380449 19.784770925255458 H 0.0 **** 0.06
26361 C 57.09192820791145 41.16870712560899 31.400148402653457 C 0.0 **** -0.24
26362 H 56.91740202136995 41.98641439900359 30.700446096251937 H 0.0 **** 0.06
26363 H 56.920326105404 40.217418129949124 30.897269900455967 H 0.0 **** 0.06
26364 H 56.41087930848897 41.26226381806458 32.24570583875334 H 0.0 **** 0.06
26365 H 58.120990023331046 41.21105254274602 31.756917944821538 H 0.0 **** 0.06
26366 C 6.16697823243004 64.55740219525092 19.236244823622144 C 0.0 **** -0.24
26367 H 5.2244638698525705 64.26649967827478 19.700593064478028 H 0.0 **** 0.06
26368 H 6.797258762981784 63.67656832926201 19.112361673770295 H 0.0 **** 0.06
26369 H 6.675875103473317 65.28288863345523 19.87088666331158 H 0.0 **** 0.06
26370 H 5.96933007035085 65.0026909822787 18.260812612343557 H 0.0 **** 0.06
26371 C 16.373949073433778 36.7220825744335 15.586089977015888 C 0.0 **** -0.24
26372 H 16.303526120816628 35.99265625695244 14.77977510549556 H 0.0 **** 0.06
26373 H 15.536306651401972 37.4174451215232 15.521367286285852 H 0.0 **** 0.06
26374 H 17.310841067699613 37.272533953172285 15.496761561692836 H 0.0 **** 0.06
26375 H 16.345803086091962 36.20619776340874 16.54592305299923 H 0.0 **** 0.06
26376 C 51.26908580984218 60.01720401094407 12.043217116678363 C 0.0 **** -0.24
26377 H 51.611474924399204 60.51273730257192 11.13480899869296 H 0.0 **** 0.06
26378 H 51.33282903154736 60.71174771159488 12.881647661311973 H 0.0 **** 0.06
26379 H 51.89711339323463 59.14877508296 12.242127692980574 H 0.0 **** 0.06
26380 H 50.23509723262754 59.69628436935095 11.914947507791283 H 0.0 **** 0.06
26381 C 83.32526593681973 36.097467183976505 93.54477590786217 C 0.0 **** -0.24
26382 H 84.03952856569055 36.47643106089825 92.81395710040323 H 0.0 **** 0.06
26383 H 83.84957671265238 35.49807276651816 94.28850661636696 H 0.0 **** 0.06
26384 H 82.58150626414778 35.481844173567424 93.03854499374609 H 0.0 **** 0.06
26385 H 82.83023392775539 36.93494677612853 94.03528080347286 H 0.0 **** 0.06
26386 C 1.308379665675318 27.352768939810005 17.300456007538614 C 0.0 **** -0.24
26387 H 0.7204852114159621 27.840375825769257 18.077483324720674 H 0.0 **** 0.06
26388 H 2.3283733982294734 27.203157517864895 17.656069740767762 H 0.0 **** 0.06
26389 H 1.322060235659933 27.979018826537327 16.409034821748747 H 0.0 **** 0.06
26390 H 0.8624236354909272 26.387331786610673 17.059976862790563 H 0.0 **** 0.06
26391 C 11.426553978242737 5.5175651613070755 98.67241306286157 C 0.0 **** -0.24
26392 H 10.638402152330855 6.240867983684041 98.88698636785202 H 0.0 **** 0.06
26393 H 12.379431828211807 6.038132657626207 98.57663649998395 H 0.0 **** 0.06
26394 H 11.198949377938675 4.99980753830998 97.74070814950798 H 0.0 **** 0.06
26395 H 11.486408668013667 4.794219304964656 99.48487228772696 H 0.0 **** 0.06
26396 C 28.04219150289198 35.10501384214061 24.185883526204663 C 0.0 **** -0.24
26397 H 28.93933212686882 34.497547782718215 24.071579137460077 H 0.0 **** 0.06
26398 H 27.713784567125415 35.074717970266704 25.225179416590777 H 0.0 **** 0.06
26399 H 27.25326600390416 34.71210279787141 23.544627472675444 H 0.0 **** 0.06
26400 H 28.260690816802864 36.13494877156495 23.90375774871984 H 0.0 **** 0.06
26401 C 98.41595036276006 78.93911982451584 60.56305666580235 C 0.0 **** -0.24
26402 H 98.94316646539527 77.98497663653262 60.56501460726456 H 0.0 **** 0.06
26403 H 98.44217555602022 79.36947855168194 61.56407837411517 H 0.0 **** 0.06
26404 H 97.38005089351684 78.78033122697076 60.262864477665374 H 0.0 **** 0.06
26405 H 98.89762009706304 79.61926832677506 59.86149406658363 H 0.0 **** 0.06
26406 C 16.055496381664312 44.085834807602595 36.005931463938396 C 0.0 **** -0.24
26407 H 16.886273300149952 44.188177876375335 36.70483383349364 H 0.0 **** 0.06
26408 H 16.000549838326833 43.05484488194813 35.656695862796994 H 0.0 **** 0.06
26409 H 16.212541565668346 44.74966067069599 35.15564803632452 H 0.0 **** 0.06
26410 H 15.12498260991795 44.350136627672214 36.50693891231134 H 0.0 **** 0.06
26411 C 106.64166378159669 23.11891933078948 68.28652207526336 C 0.0 **** -0.24
26412 H 106.91854381971896 22.143449075456346 68.68563491485031 H 0.0 **** 0.06
26413 H 106.738853658458 23.871354443244684 69.0697707211505 H 0.0 **** 0.06
26414 H 105.60980861562209 23.088413846588395 67.93685482441605 H 0.0 **** 0.06
26415 H 107.30001438370783 23.371709932879668 67.45585714799586 H 0.0 **** 0.06
26416 C 51.310730899893656 64.35799846196015 0.4867676227790625 C 0.0 **** -0.24
26417 H 51.3537917881369 64.39837726645038 -0.6016014193583654 H 0.0 **** 0.06
26418 H 50.31764854961847 64.66012375764917 0.821616379070317 H 0.0 **** 0.06
26419 H 52.056738844428935 65.03391919504428 0.9049532050246194 H 0.0 **** 0.06
26420 H 51.51397865500863 63.34145013309151 0.8211575581726978 H 0.0 **** 0.06
26421 C 52.77109947922916 20.254173919917093 86.49412444580403 C 0.0 **** -0.24
26422 H 52.28637649984712 21.17174948870658 86.82684587206683 H 0.0 **** 0.06
26423 H 52.28339703645656 19.893019668357596 85.58870366199318 H 0.0 **** 0.06
26424 H 52.69368845141842 19.498812707119896 87.27545522191969 H 0.0 **** 0.06
26425 H 53.82287931521659 20.45455089761103 86.2858909506084 H 0.0 **** 0.06
26426 C 82.83163792886948 69.78103851344014 60.710286918183996 C 0.0 **** -0.24
26427 H 82.33293248522014 70.74950737966304 60.67465281416857 H 0.0 **** 0.06
26428 H 82.3128581819337 69.13142939296785 61.41533261430422 H 0.0 **** 0.06
26429 H 83.86420687041297 69.91656149636424 61.03336555741363 H 0.0 **** 0.06
26430 H 82.81762340256034 69.32740025269555 59.71961404038751 H 0.0 **** 0.06
26431 C 49.95682074391649 26.47844492426583 2.1437735167023675 C 0.0 **** -0.24
26432 H 48.92429900660051 26.543663571596767 2.4881269609028323 H 0.0 **** 0.06
26433 H 50.49495770399295 27.379994769605617 2.4359983203444813 H 0.0 **** 0.06
26434 H 49.9721190933749 26.38115455350652 1.0583347130781817 H 0.0 **** 0.06
26435 H 50.43462213692901 25.607835176179833 2.5923728130649693 H 0.0 **** 0.06
26436 C 2.7273660960993498 19.937853276669557 72.32647735555715 C 0.0 **** -0.24
26437 H 3.602692175036113 19.93228878057647 72.97665056119547 H 0.0 **** 0.06
26438 H 2.2945768111539833 18.93799800308193 72.29197032342351 H 0.0 **** 0.06
26439 H 3.022323897887188 20.2409701885432 71.32184165057862 H 0.0 **** 0.06
26440 H 1.990310255681556 20.640118874561352 72.71679083811799 H 0.0 **** 0.06
26441 C 71.56180784511241 88.41348230141797 97.86454111286037 C 0.0 **** -0.24
26442 H 72.06042407380727 88.15761238840163 96.93004324163434 H 0.0 **** 0.06
26443 H 71.78035568786493 89.44960707690943 98.12147907295895 H 0.0 **** 0.06
26444 H 71.92154054184317 87.75792766775362 98.65835118557561 H 0.0 **** 0.06
26445 H 70.4855009783372 88.28555321384071 97.74876743045417 H 0.0 **** 0.06
26446 C 53.752609643681836 93.59315338083881 86.5623645601442 C 0.0 **** -0.24
26447 H 54.09417911768301 92.90935874825531 87.3390092823225 H 0.0 **** 0.06
26448 H 53.455195116317846 93.02344673345283 85.68120971270156 H 0.0 **** 0.06
26449 H 54.56207815129214 94.27494777819346 86.29787430674533 H 0.0 **** 0.06
26450 H 52.90097228124159 94.16462671079074 86.93036436886014 H 0.0 **** 0.06
26451 C 79.1778736038048 88.90279020867855 106.93020926200926 C 0.0 **** -0.24
26452 H 78.67814711130781 88.7604350551984 107.88877868734416 H 0.0 **** 0.06
26453 H 79.28567196310834 89.96842540831518 106.73083789708777 H 0.0 **** 0.06
26454 H 78.58517397460375 88.44159989236294 106.13956423744038 H 0.0 **** 0.06
26455 H 80.1632546066183 88.43728922852202 106.96299663423953 H 0.0 **** 0.06
26456 C 96.15030084764302 21.726190644591597 16.951698906270934 C 0.0 **** -0.24
26457 H 95.5298101939053 21.64186959533403 16.059310430826486 H 0.0 **** 0.06
26458 H 95.56599949698533 21.446566485568923 17.827759448684247 H 0.0 **** 0.06
26459 H 96.49425173371625 22.755572646477702 17.05797402590497 H 0.0 **** 0.06
26460 H 97.0102371118306 21.06348414614061 16.859821092330066 H 0.0 **** 0.06
26461 C 107.50971202235414 75.03612931365694 33.59239392593898 C 0.0 **** -0.24
26462 H 107.62130256893789 73.99828896753678 33.27722592547332 H 0.0 **** 0.06
26463 H 107.50793885702561 75.68373030174484 32.71587829116257 H 0.0 **** 0.06
26464 H 108.339425438812 75.30891626398684 34.24418435857504 H 0.0 **** 0.06
26465 H 106.56965823762015 75.15238672469314 34.131740716029924 H 0.0 **** 0.06
26466 C 0.0835651673671407 15.53627088297273 85.46256633292043 C 0.0 **** -0.24
26467 H 0.40680163225126 15.84850639010233 84.46947819792753 H 0.0 **** 0.06
26468 H 0.6155924649096569 16.116837457864477 86.2165061790561 H 0.0 **** 0.06
26469 H 0.30073855865969357 14.476601265829174 85.59867257100858 H 0.0 **** 0.06
26470 H -0.9888404079007422 15.703139883541084 85.56337248378425 H 0.0 **** 0.06
26471 C 108.28874140624703 35.39294037109404 40.18857347980355 C 0.0 **** -0.24
26472 H 107.6184453053591 34.900408345488415 39.48380739955482 H 0.0 **** 0.06
26473 H 108.65834916672941 36.319559036358115 39.7494427314046 H 0.0 **** 0.06
26474 H 109.12852082510015 34.735436765421596 40.41171325964234 H 0.0 **** 0.06
26475 H 107.74766968739294 35.61629588089765 41.108294413538346 H 0.0 **** 0.06
26476 C 52.08232591639896 82.5219143114767 80.20619521580431 C 0.0 **** -0.24
26477 H 51.423929589857636 81.85378872190506 80.76206154403438 H 0.0 **** 0.06
26478 H 51.694401391361026 82.65602138726678 79.19585281054226 H 0.0 **** 0.06
26479 H 53.08115223187971 82.0891386799093 80.15721491194506 H 0.0 **** 0.06
26480 H 52.129383726452176 83.48684738298311 80.70906348726761 H 0.0 **** 0.06
26481 C 86.80320159198715 93.58844822310422 85.6536201466987 C 0.0 **** -0.24
26482 H 86.42644716067116 93.66373867625931 86.67425150465937 H 0.0 **** 0.06
26483 H 86.70988846657963 94.55610235061899 85.15959174248991 H 0.0 **** 0.06
26484 H 86.22405610218146 92.84407354284716 85.10732014427379 H 0.0 **** 0.06
26485 H 87.85055242132256 93.28971217370432 85.67454389393652 H 0.0 **** 0.06
26486 C 100.24827480998665 0.023174387458141155 39.92958650908367 C 0.0 **** -0.24
26487 H 100.26473316403491 0.8569490854929995 39.2286516530828 H 0.0 **** 0.06
26488 H 99.229874535766 -0.13094694669564433 40.28636706241863 H 0.0 **** 0.06
26489 H 100.90080909217372 0.2450369028471755 40.77359590604863 H 0.0 **** 0.06
26490 H 100.59782032457014 -0.8799356397955194 39.4281693872616 H 0.0 **** 0.06
26491 C 25.96545876111699 29.24907822630494 93.08769209967323 C 0.0 **** -0.24
26492 H 25.266273538395126 29.638696173172846 92.34734098243437 H 0.0 **** 0.06
26493 H 25.8181214682526 29.767600475109234 94.03510239400184 H 0.0 **** 0.06
26494 H 26.986260206679077 29.407511848947053 92.74136709549545 H 0.0 **** 0.06
26495 H 25.790056720994386 28.181771269890966 93.22586189721632 H 0.0 **** 0.06
26496 C 62.745061199330564 45.98367719985436 43.277307304052044 C 0.0 **** -0.24
26497 H 63.2993503266859 45.86928316619066 42.34565047784696 H 0.0 **** 0.06
26498 H 62.17352951601566 45.07603597698035 43.47283693886192 H 0.0 **** 0.06
26499 H 62.06490386864965 46.8314211495078 43.1929682308828 H 0.0 **** 0.06
26500 H 63.44285507494874 46.1575957454221 44.09560422092244 H 0.0 **** 0.06
26501 C 46.21645653827454 102.7549067602499 104.94855030373134 C 0.0 **** -0.24
26502 H 46.140650639061846 101.85042025663424 105.5524654602022 H 0.0 **** 0.06
26503 H 45.46314465957238 103.47247219029475 105.2747802305334 H 0.0 **** 0.06
26504 H 46.05207500972932 102.50666103859503 103.90010067320688 H 0.0 **** 0.06
26505 H 47.208604256622266 103.189681252726 105.0678645325003 H 0.0 **** 0.06
26506 C 84.34423437680368 81.79574018321281 89.44014391478265 C 0.0 **** -0.24
26507 H 84.80337926664595 80.82488705447116 89.25290595924076 H 0.0 **** 0.06
26508 H 84.9916079213599 82.38420843374462 90.09108901654878 H 0.0 **** 0.06
26509 H 83.37705265013287 81.65412565704867 89.92152074547027 H 0.0 **** 0.06
26510 H 84.2062310904056 82.32083732651816 88.49492915011854 H 0.0 **** 0.06
26511 C 75.40858275178164 88.54401057495664 34.211058743977304 C 0.0 **** -0.24
26512 H 75.76966755914134 87.52907214122001 34.3787657086138 H 0.0 **** 0.06
26513 H 74.58026181932235 88.75062798705432 34.88961426694391 H 0.0 **** 0.06
26514 H 75.06793924886517 88.64153054059389 33.18090115521994 H 0.0 **** 0.06
26515 H 76.21580786960749 89.2517217541216 34.39696007821743 H 0.0 **** 0.06
26516 C 70.68294448342674 41.41089001307881 41.034186531203375 C 0.0 **** -0.24
26517 H 70.76289479157433 42.170133643975674 40.25744666184755 H 0.0 **** 0.06
26518 H 69.8152521366605 41.62123908352095 41.66069686633344 H 0.0 **** 0.06
26519 H 71.58552155507492 41.42184947141064 41.64683282585587 H 0.0 **** 0.06
26520 H 70.56867409106299 40.4299583167402 40.573009622351876 H 0.0 **** 0.06
26521 C 77.67339987158664 57.38762656564887 17.01650222114293 C 0.0 **** -0.24
26522 H 76.8935729178952 57.08773310653521 16.3160368549064 H 0.0 **** 0.06
26523 H 78.14905018284878 56.49931288235723 17.432410210692353 H 0.0 **** 0.06
26524 H 77.23244839066132 57.975239351952325 17.82127040659691 H 0.0 **** 0.06
26525 H 78.41816821040834 57.98872810037244 16.493922103992645 H 0.0 **** 0.06
26526 C 74.28852556568187 68.50823847855013 98.33882952894943 C 0.0 **** -0.24
26527 H 73.58073813144027 69.31479984799736 98.14699997308246 H 0.0 **** 0.06
26528 H 75.29166168031158 68.83002648147021 98.05914528274552 H 0.0 **** 0.06
26529 H 74.00995604610408 67.63332990047313 97.74923390969305 H 0.0 **** 0.06
26530 H 74.27073406416602 68.25319081853578 99.39761653886637 H 0.0 **** 0.06
26531 C 71.05204824680357 9.683319463760853 8.822245645851083 C 0.0 **** -0.24
26532 H 71.65869229936806 10.503060063504591 9.207140706358842 H 0.0 **** 0.06
26533 H 71.56159559501296 9.22111607769935 7.97668642259589 H 0.0 **** 0.06
26534 H 70.08533456245463 10.06831747468766 8.497718226153921 H 0.0 **** 0.06
26535 H 70.90249817041067 8.942077689666235 9.606869911016872 H 0.0 **** 0.06
26536 C 63.56357566102952 32.716528282589394 13.339008287811453 C 0.0 **** -0.24
26537 H 64.4837768791179 32.2026330985893 13.062900932880666 H 0.0 **** 0.06
26538 H 62.708693856491266 32.08485590447415 13.096836883587969 H 0.0 **** 0.06
26539 H 63.49115955828779 33.65345147244395 12.784951608316021 H 0.0 **** 0.06
26540 H 63.571140445065396 32.925793483614314 14.408278444365294 H 0.0 **** 0.06
26541 C 59.92469174722801 46.80267270321252 67.35893899056782 C 0.0 **** -0.24
26542 H 60.414000626159265 46.06614531654333 67.99677684163163 H 0.0 **** 0.06
26543 H 60.55043370966209 47.0029776881604 66.48952899214635 H 0.0 **** 0.06
26544 H 59.77307485114714 47.72488679938641 67.9191829581275 H 0.0 **** 0.06
26545 H 58.959695158562795 46.414181971091665 67.0308269938343 H 0.0 **** 0.06
26546 C 66.90115022127523 28.440237756338547 10.293715695872237 C 0.0 **** -0.24
26547 H 66.83094964994976 29.525738020266033 10.367964953800538 H 0.0 **** 0.06
26548 H 67.91046835970508 28.162033618211296 9.991743549931016 H 0.0 **** 0.06
26549 H 66.18687460057973 28.080743165763522 9.553201128312196 H 0.0 **** 0.06
26550 H 66.67408321891398 27.995435308452272 11.26218829989054 H 0.0 **** 0.06
26551 C 38.27302380056943 39.80974252331555 27.615246968899584 C 0.0 **** -0.24
26552 H 37.81811494678044 39.59776007587186 28.5822036275314 H 0.0 **** 0.06
26553 H 38.10616168014565 40.85570533039362 27.356372980893525 H 0.0 **** 0.06
26554 H 37.822909399773835 39.17171761011727 26.85384289438396 H 0.0 **** 0.06
26555 H 39.34360249197931 39.61406776838243 27.666515548507505 H 0.0 **** 0.06
26556 C 56.27838366461026 88.86815162546908 86.88792601826646 C 0.0 **** -0.24
26557 H 56.346950157638105 88.23051014074848 87.76898720189308 H 0.0 **** 0.06
26558 H 55.22995010673503 89.07586713195505 86.67159696645699 H 0.0 **** 0.06
26559 H 56.730970567084796 88.36044494941736 86.036684662332 H 0.0 **** 0.06
26560 H 56.80437146553345 89.8039275736556 87.0753747856886 H 0.0 **** 0.06
26561 C 64.10112229899313 26.375412433517198 58.94967332165186 C 0.0 **** -0.24
26562 H 65.17365481201229 26.184822800420704 58.98310155857617 H 0.0 **** 0.06
26563 H 63.85666774553576 27.194132323611825 59.627135956372044 H 0.0 **** 0.06
26564 H 63.56348343717126 25.47811498435334 59.25534239433597 H 0.0 **** 0.06
26565 H 63.81116762061011 26.64415800934347 57.93437340773639 H 0.0 **** 0.06
26566 C 70.43184038947612 5.434688425884815 28.178808007643 C 0.0 **** -0.24
26567 H 70.10477274305174 5.872550938941302 29.12150785480975 H 0.0 **** 0.06
26568 H 69.67431149867795 4.737576024056821 27.819919211999206 H 0.0 **** 0.06
26569 H 71.37127146789435 4.904066094139935 28.331824424000388 H 0.0 **** 0.06
26570 H 70.57688744666346 6.225961519797494 27.44213427289918 H 0.0 **** 0.06
26571 C 93.8170275138417 66.46048306052546 75.84233470974954 C 0.0 **** -0.24
26572 H 93.56018017417378 67.4370907340741 76.25221242454757 H 0.0 **** 0.06
26573 H 93.561224869602 66.43363506202633 74.78298015642656 H 0.0 **** 0.06
26574 H 93.25984482134045 65.68695794690024 76.37159763991724 H 0.0 **** 0.06
26575 H 94.88528757768057 66.28511170474809 75.96388353887158 H 0.0 **** 0.06
26576 C 98.4890505882033 1.3337938939230867 71.05989407733665 C 0.0 **** -0.24
26577 H 98.82780042706977 0.7672640798716088 70.19233866553856 H 0.0 **** 0.06
26578 H 98.55227608912641 0.7080412724836833 71.94960527144707 H 0.0 **** 0.06
26579 H 97.45640522764806 1.647192954403124 70.90769541250387 H 0.0 **** 0.06
26580 H 99.12100724526468 2.2132001098152045 71.18818440395643 H 0.0 **** 0.06
26581 C 17.78146230659 106.26217388981132 25.483835755543865 C 0.0 **** -0.24
26582 H 17.592891973853625 106.95415536061925 26.305263042890914 H 0.0 **** 0.06
26583 H 18.68506297772339 105.69018962389332 25.692267136389418 H 0.0 **** 0.06
26584 H 17.911710557285943 106.82409011474725 24.558337797648917 H 0.0 **** 0.06
26585 H 16.935851726999488 105.5829907467797 25.380135130620815 H 0.0 **** 0.06
26586 C 10.09488184536005 82.2670111130698 32.35970839807999 C 0.0 **** -0.24
26587 H 10.009377230672044 81.63618494192698 33.244854825192306 H 0.0 **** 0.06
26588 H 10.77650697595314 81.80195567193752 31.647672956184465 H 0.0 **** 0.06
26589 H 10.480447655135961 83.245708308932 32.64684375075433 H 0.0 **** 0.06
26590 H 9.11338556900516 82.38380546457317 31.901138926092642 H 0.0 **** 0.06
26591 C 73.18585607793756 2.700591074267791 8.097497341205354 C 0.0 **** -0.24
26592 H 73.79531819481338 3.132430460071305 7.303505811874658 H 0.0 **** 0.06
26593 H 73.3132222580575 3.284419904803272 9.010273722351428 H 0.0 **** 0.06
26594 H 73.49866144648506 1.6724826238521473 8.276602396890752 H 0.0 **** 0.06
26595 H 72.13746196944527 2.714996046421362 7.800384350615502 H 0.0 **** 0.06
26596 C 23.776609691733398 56.49517901807366 84.1922768799817 C 0.0 **** -0.24
26597 H 23.391376740259133 55.56250470185563 83.77882541722539 H 0.0 **** 0.06
26598 H 22.94752333013973 57.175538070089374 84.38666624846323 H 0.0 **** 0.06
26599 H 24.463540588566204 56.9516689020673 83.47979615646284 H 0.0 **** 0.06
26600 H 24.303285034666004 56.28809302385656 85.12369371627409 H 0.0 **** 0.06
26601 C 102.77633873279696 9.554779969979556 21.252678532668256 C 0.0 **** -0.24
26602 H 101.71059128271396 9.346805669346507 21.33665965087326 H 0.0 **** 0.06
26603 H 103.33553904294276 8.621844051116057 21.326349880869543 H 0.0 **** 0.06
26604 H 103.08099989073443 10.224925379415263 22.056742950955936 H 0.0 **** 0.06
26605 H 102.97933724555564 10.026413584737137 20.291048554832486 H 0.0 **** 0.06
26606 C 85.90988332848934 57.09822486806965 98.40213636400621 C 0.0 **** -0.24
26607 H 85.9839408360694 56.48812232830471 97.5023034875749 H 0.0 **** 0.06
26608 H 85.15762414903219 56.674260689434334 99.06755080705153 H 0.0 **** 0.06
26609 H 85.62287316484549 58.113752538369596 98.12934050722875 H 0.0 **** 0.06
26610 H 86.87486610142963 57.1178001378843 98.90841584189725 H 0.0 **** 0.06
26611 C 95.11307312120823 96.59165860370393 92.17778698731246 C 0.0 **** -0.24
26612 H 95.45094498962021 95.56196295328513 92.056959104258 H 0.0 **** 0.06
26613 H 94.951549511243 97.0377844799003 91.19651042825888 H 0.0 **** 0.06
26614 H 95.86952532104601 97.16092001183517 92.7164170065231 H 0.0 **** 0.06
26615 H 94.17952890533661 96.6034222081975 92.74027580915833 H 0.0 **** 0.06
26616 C 95.50799579058395 52.02976727067261 106.32945662199093 C 0.0 **** -0.24
26617 H 96.11975959047814 52.89144999412622 106.06349653087095 H 0.0 **** 0.06
26618 H 94.68557715347421 52.35133167877842 106.96844784202489 H 0.0 **** 0.06
26619 H 96.11946297695005 51.30108462115584 106.86243071208665 H 0.0 **** 0.06
26620 H 95.1085047313733 51.57555435591354 105.42238803945973 H 0.0 **** 0.06
26621 C 31.885602299803367 52.97209195207401 4.617136941857078 C 0.0 **** -0.24
26622 H 32.48702985943166 53.36479742870422 3.79725636263945 H 0.0 **** 0.06
26623 H 32.52782040578009 52.775699215840746 5.4763288391949345 H 0.0 **** 0.06
26624 H 31.404749078162695 52.045859215787 4.303157736581184 H 0.0 **** 0.06
26625 H 31.123662840827535 53.70194882988697 4.891286676270246 H 0.0 **** 0.06
26626 C 50.268037272597965 44.39214697614483 6.7153777619585355 C 0.0 **** -0.24
26627 H 50.90379033461026 44.87877809993057 5.976310773987265 H 0.0 **** 0.06
26628 H 50.42208367817358 43.31418126564867 6.673099318464949 H 0.0 **** 0.06
26629 H 49.223785067691715 44.61837926930531 6.501477994661755 H 0.0 **** 0.06
26630 H 50.52249000991652 44.757249269694796 7.7106229607204995 H 0.0 **** 0.06
26631 C 31.76138560827411 96.26321102103333 89.98011432488339 C 0.0 **** -0.24
26632 H 32.15568009544063 96.34428668151821 88.96732439490692 H 0.0 **** 0.06
26633 H 31.351233862893373 97.22462751066769 90.28801480428021 H 0.0 **** 0.06
26634 H 32.5631037267412 95.97586860635892 90.65981515566146 H 0.0 **** 0.06
26635 H 30.976380428242663 95.50714373726822 90.00465024603218 H 0.0 **** 0.06
26636 C 48.733871428230856 47.21035422171592 10.085307166752598 C 0.0 **** -0.24
26637 H 49.380294132293045 46.696682350499195 10.797941597844657 H 0.0 **** 0.06
26638 H 48.406983005917624 46.50748384936882 9.319688455866633 H 0.0 **** 0.06
26639 H 49.28556008442459 48.02676870268742 9.618073884988105 H 0.0 **** 0.06
26640 H 47.864591919853865 47.611547210357244 10.607546811619068 H 0.0 **** 0.06
26641 C 86.64551963686594 6.066283454388255 90.36947211550103 C 0.0 **** -0.24
26642 H 86.5124374772479 7.115594948314168 90.63040568726215 H 0.0 **** 0.06
26643 H 86.20780438784524 5.8776318211100005 89.38894531278153 H 0.0 **** 0.06
26644 H 86.15232327599915 5.441312655067819 91.1134537518126 H 0.0 **** 0.06
26645 H 87.7097389191444 5.829485307531442 90.34423566983594 H 0.0 **** 0.06
26646 C 65.79947327719334 65.68939921330889 2.8965703598274786 C 0.0 **** -0.24
26647 H 65.86673688008507 65.91104371478902 1.8309934101494036 H 0.0 **** 0.06
26648 H 64.80599091235857 65.30191810992844 3.123832505863163 H 0.0 **** 0.06
26649 H 65.97450033758383 66.5997050118002 3.4691379944856635 H 0.0 **** 0.06
26650 H 66.5485384948352 64.94338200631277 3.1600631276674562 H 0.0 **** 0.06
26651 C 46.73465305963225 77.41653237183664 67.1096942474382 C 0.0 **** -0.24
26652 H 47.7051280174843 77.82700080582143 66.83185462750237 H 0.0 **** 0.06
26653 H 46.07850011158587 78.22476578721647 67.43368645473572 H 0.0 **** 0.06
26654 H 46.86048941360707 76.70293727215147 67.9232838574269 H 0.0 **** 0.06
26655 H 46.29398224347307 76.91294629634277 66.24930005988864 H 0.0 **** 0.06
26656 C 15.04930400545797 42.72587072207253 59.55884464554698 C 0.0 **** -0.24
26657 H 14.978486501221795 42.34452855517827 58.53969208285756 H 0.0 **** 0.06
26658 H 14.126268873464952 42.503425552290494 60.094987532867734 H 0.0 **** 0.06
26659 H 15.204549977550656 43.80459230198788 59.532551664074916 H 0.0 **** 0.06
26660 H 15.88778711544694 42.25046846947622 60.06727223029867 H 0.0 **** 0.06
26661 C 58.8277308955831 82.62752996414682 71.4887043465557 C 0.0 **** -0.24
26662 H 58.16311758666916 83.4756696076163 71.3196799892876 H 0.0 **** 0.06
26663 H 59.75274040100334 82.97857231364038 71.94683269036047 H 0.0 **** 0.06
26664 H 59.05280895151918 82.14750274275669 70.53709963543682 H 0.0 **** 0.06
26665 H 58.34167915080491 81.91202194111605 72.15181204833792 H 0.0 **** 0.06
26666 C 95.20505740056848 70.57440105034979 59.88831491327767 C 0.0 **** -0.24
26667 H 95.90663471849643 70.38603880397187 60.70122869414115 H 0.0 **** 0.06
26668 H 94.9710238520388 69.63548388789496 59.38527934104769 H 0.0 **** 0.06
26669 H 95.65270063770771 71.26710472913229 59.1753429424125 H 0.0 **** 0.06
26670 H 94.29052903701557 71.00904260894029 60.29215827911713 H 0.0 **** 0.06
26671 C 51.30455047173793 47.82651852106921 14.102367735396228 C 0.0 **** -0.24
26672 H 51.69642774119035 47.730026279554444 15.114151428263085 H 0.0 **** 0.06
26673 H 52.10778697971383 48.121027837618975 13.427387580627453 H 0.0 **** 0.06
26674 H 50.521064159986715 48.58442507238557 14.087850814362866 H 0.0 **** 0.06
26675 H 50.89074257817914 46.870675190648754 13.780570541000543 H 0.0 **** 0.06
26676 C 26.334838395684763 45.2972202139414 101.25123467406104 C 0.0 **** -0.24
26677 H 25.251977718204902 45.38688851600828 101.33670515843204 H 0.0 **** 0.06
26678 H 26.812413857821923 46.05364995683436 101.87514945692925 H 0.0 **** 0.06
26679 H 26.630871423133033 45.44168709013167 100.21255782600787 H 0.0 **** 0.06
26680 H 26.643769975322716 44.30519902817702 101.58219261361512 H 0.0 **** 0.06
26681 C 67.7956599263056 97.62829446670946 26.90682512372585 C 0.0 **** -0.24
26682 H 67.24415572369703 96.73311661783106 26.62221395474793 H 0.0 **** 0.06
26683 H 68.06622891831455 97.56950993492563 27.961071614133786 H 0.0 **** 0.06
26684 H 67.17328262768454 98.50719839680505 26.740166135667177 H 0.0 **** 0.06
26685 H 68.7008725165596 97.70437355884047 26.30268763569575 H 0.0 **** 0.06
26686 C 105.06164901953059 109.61550278866792 56.020561775813576 C 0.0 **** -0.24
26687 H 105.69149152523204 110.4887293659952 56.18975283223969 H 0.0 **** 0.06
26688 H 104.9817750426418 109.04180700813771 56.94407310562579 H 0.0 **** 0.06
26689 H 105.50500162686097 108.99285942566485 55.24366374050845 H 0.0 **** 0.06
26690 H 104.06904541999518 109.9385889595452 55.70597584336184 H 0.0 **** 0.06
26691 C 77.75896764835062 8.517286034074317 21.543952580906023 C 0.0 **** -0.24
26692 H 77.13203227538918 9.297574789911124 21.975509484254133 H 0.0 **** 0.06
26693 H 78.80869662010227 8.77354554882001 21.68758411160087 H 0.0 **** 0.06
26694 H 77.5478827140858 8.431319624237943 20.477042136499165 H 0.0 **** 0.06
26695 H 77.54500930787509 7.567549606601261 22.033619184700683 H 0.0 **** 0.06
26696 C 52.802471337814175 90.07436950417093 41.159113442368294 C 0.0 **** -0.24
26697 H 53.386455694529715 90.65849068778856 41.87112652621204 H 0.0 **** 0.06
26698 H 51.916289921345914 89.67915734146733 41.65612725325579 H 0.0 **** 0.06
26699 H 53.40813131288554 89.25017105317988 40.783803282716235 H 0.0 **** 0.06
26700 H 52.49981288165869 90.71151998516372 40.328986996585854 H 0.0 **** 0.06
26701 C 59.05657573932385 11.024863457345681 108.26528388877146 C 0.0 **** -0.24
26702 H 59.74595431484613 10.689778597640482 107.4905005865269 H 0.0 **** 0.06
26703 H 58.3131602301041 10.249563441340651 108.4501706679279 H 0.0 **** 0.06
26704 H 58.558266706040115 11.936671871712417 107.93751973839066 H 0.0 **** 0.06
26705 H 59.61028687532831 11.223733740818556 109.18272077397705 H 0.0 **** 0.06
26706 C 79.99225685714208 2.7077397039441458 33.382654239523816 C 0.0 **** -0.24
26707 H 79.93106987067807 1.661666529987892 33.08490458013348 H 0.0 **** 0.06
26708 H 80.41225559094326 3.294089127372331 32.56578261562491 H 0.0 **** 0.06
26709 H 80.63051815860626 2.7990255848578114 34.261931953823634 H 0.0 **** 0.06
26710 H 78.99397857981046 3.0771215985696827 33.61962768234256 H 0.0 **** 0.06
26711 C 106.27650552621738 10.551642831390495 99.98972286798585 C 0.0 **** -0.24
26712 H 105.85350447537543 11.03989069652556 99.11184645835766 H 0.0 **** 0.06
26713 H 106.3672150419545 11.27598977310683 100.79980755905729 H 0.0 **** 0.06
26714 H 107.2605898132422 10.153710831805427 99.74593400637093 H 0.0 **** 0.06
26715 H 105.62262849870689 9.736685072819569 100.30255608388615 H 0.0 **** 0.06
26716 C 29.226662323130412 3.417745026074499 2.1586002017002954 C 0.0 **** -0.24
26717 H 28.764749353891887 4.40144686895826 2.2357422853055766 H 0.0 **** 0.06
26718 H 28.469471869071185 2.647698725203554 2.3077048490020786 H 0.0 **** 0.06
26719 H 30.000730958529118 3.3206108677570683 2.920607829154619 H 0.0 **** 0.06
26720 H 29.6738326579559 3.302373331850333 1.1706892828886453 H 0.0 **** 0.06
26721 C 31.305870462823087 31.294178460091878 12.216921078983887 C 0.0 **** -0.24
26722 H 31.967774509638787 31.911079180842492 12.824431885104843 H 0.0 **** 0.06
26723 H 31.4228749333095 30.24765389646688 12.50015456146889 H 0.0 **** 0.06
26724 H 31.559087687461783 31.416463669961665 11.164204028935671 H 0.0 **** 0.06
26725 H 30.271946554618772 31.600626584889234 12.37988067422873 H 0.0 **** 0.06
26726 C 33.94296935410512 39.286435977996746 6.27253837171213 C 0.0 **** -0.24
26727 H 35.00317602624153 39.031381322733694 6.257778348386694 H 0.0 **** 0.06
26728 H 33.37294493663782 38.49617445535898 5.782077520755536 H 0.0 **** 0.06
26729 H 33.78856711935978 40.22800979218408 5.744663753302859 H 0.0 **** 0.06
26730 H 33.60833289019496 39.38953168097788 7.305110215059983 H 0.0 **** 0.06
26731 C 91.08471833747855 4.403886879797 93.58014230271743 C 0.0 **** -0.24
26732 H 91.09920096884514 4.7219972710031755 94.62263781858269 H 0.0 **** 0.06
26733 H 90.54277267666662 5.137529623866527 92.98390069451688 H 0.0 **** 0.06
26734 H 90.58886937710645 3.435526087460431 93.50346691330122 H 0.0 **** 0.06
26735 H 92.10685831560897 4.318824527908731 93.21252282890106 H 0.0 **** 0.06
26736 C 10.20502925262683 31.272825637590785 10.671393252034818 C 0.0 **** -0.24
26737 H 9.3473714998525 31.167180007746424 11.33637151071946 H 0.0 **** 0.06
26738 H 10.474510620970833 32.32623077493878 10.591886668053348 H 0.0 **** 0.06
26739 H 9.948605637102148 30.887077902510583 9.685243960491675 H 0.0 **** 0.06
26740 H 11.047890787933639 30.711101381582807 11.074880783461936 H 0.0 **** 0.06
26741 C 29.128600073390118 102.99153757772991 89.01541786713238 C 0.0 **** -0.24
26742 H 28.997413515999426 102.03147054724144 89.51378039370502 H 0.0 **** 0.06
26743 H 30.049225727988727 103.45989191273246 89.36616788495087 H 0.0 **** 0.06
26744 H 28.281188013855854 103.63851538086513 89.24476573755919 H 0.0 **** 0.06
26745 H 29.187428887908794 102.83642129692814 87.93807345710279 H 0.0 **** 0.06
26746 C 108.55060821332435 101.4908063834596 60.225831719164574 C 0.0 **** -0.24
26747 H 107.62271090053406 100.97069587029661 60.46373189667952 H 0.0 **** 0.06
26748 H 108.33030150137249 102.52561867275732 59.9633943952723 H 0.0 **** 0.06
26749 H 109.03800292803126 100.9983871822883 59.38505141003566 H 0.0 **** 0.06
26750 H 109.2113950198751 101.46857012806412 61.09256248538793 H 0.0 **** 0.06
26751 C 97.59976526055883 61.547984085740836 41.09416223831255 C 0.0 **** -0.24
26752 H 97.64297583035278 61.19210032463047 42.12334805282657 H 0.0 **** 0.06
26753 H 97.50113872760406 60.69796150906137 40.419397639937074 H 0.0 **** 0.06
26754 H 98.51403312777617 62.094211240440586 40.86054917882592 H 0.0 **** 0.06
26755 H 96.74169291964944 62.2094822470504 40.974797652516315 H 0.0 **** 0.06
26756 C 22.43828440369822 51.40900895923605 54.188107742053205 C 0.0 **** -0.24
26757 H 22.88809795723853 50.44856171750229 54.43686395865143 H 0.0 **** 0.06
26758 H 21.76928742620686 51.71709403814282 54.992532731996505 H 0.0 **** 0.06
26759 H 21.87239937734813 51.315487272084624 53.260953106426314 H 0.0 **** 0.06
26760 H 23.22220445061373 52.15559709719662 54.06165076761272 H 0.0 **** 0.06
26761 C 69.17368501365428 94.156967181991 13.112354245952275 C 0.0 **** -0.24
26762 H 68.96071191936238 95.19597416671513 13.364103761296036 H 0.0 **** 0.06
26763 H 68.40555889370029 93.78318092449302 12.433785852749807 H 0.0 **** 0.06
26764 H 69.1776716655263 93.5564902893764 14.021794430867644 H 0.0 **** 0.06
26765 H 70.14859536389656 94.09224312406383 12.629345487811577 H 0.0 **** 0.06
26766 C 33.87931187542897 86.7710734180931 18.499895857686766 C 0.0 **** -0.24
26767 H 33.73608384643229 87.8491452317419 18.565246498178624 H 0.0 **** 0.06
26768 H 33.66662574316696 86.31664096893336 19.46733195404397 H 0.0 **** 0.06
26769 H 34.9101672948192 86.55747463264923 18.21618903733794 H 0.0 **** 0.06
26770 H 33.20453977608387 86.35959923643648 17.74883693483585 H 0.0 **** 0.06
26771 C 19.258123897858653 48.80519115084451 60.74693452519955 C 0.0 **** -0.24
26772 H 19.279325468260936 49.36180623589627 61.68424079266629 H 0.0 **** 0.06
26773 H 18.298736011652608 48.959274977362156 60.2537429934672 H 0.0 **** 0.06
26774 H 19.39421010398496 47.743265488873476 60.953328156474015 H 0.0 **** 0.06
26775 H 20.06095852059825 49.155064997452996 60.09900115096855 H 0.0 **** 0.06
26776 C 78.96987400016059 53.52354213359976 11.10051602781843 C 0.0 **** -0.24
26777 H 79.895426383266 53.00744107263833 10.843105068316078 H 0.0 **** 0.06
26778 H 79.10383194446337 54.06298121197321 12.038524368780088 H 0.0 **** 0.06
26779 H 78.1677186241941 52.794216556895606 11.212564278371815 H 0.0 **** 0.06
26780 H 78.71365703280475 54.22776142656684 10.30863097069232 H 0.0 **** 0.06
26781 C 77.89853133996056 28.96416247033619 76.91134369719452 C 0.0 **** -0.24
26782 H 78.92556497213079 28.95838418694302 76.54791098771443 H 0.0 **** 0.06
26783 H 77.66798935596358 27.997598560076995 77.36042889223921 H 0.0 **** 0.06
26784 H 77.21960840103264 29.149909810066504 76.07970592721742 H 0.0 **** 0.06
26785 H 77.78192845352402 29.74880797346441 77.65845482132187 H 0.0 **** 0.06
26786 C 13.397538909965856 39.62425721228067 35.95816052411916 C 0.0 **** -0.24
26787 H 13.165786813075648 40.60577941312829 36.37277003006866 H 0.0 **** 0.06
26788 H 13.906133277483757 39.745527861461994 35.00207630656253 H 0.0 **** 0.06
26789 H 12.473689068422377 39.06512197728517 35.810305469704936 H 0.0 **** 0.06
26790 H 14.044085215265849 39.08318146015341 36.64854935309193 H 0.0 **** 0.06
26791 C 14.659704586229555 78.74352066684176 46.705893653458276 C 0.0 **** -0.24
26792 H 14.163046039234295 78.04053553825318 46.036845763650405 H 0.0 **** 0.06
26793 H 14.991360440581687 78.2198744067955 47.602339880396585 H 0.0 **** 0.06
26794 H 13.962382778229458 79.53423430549091 46.982487390718234 H 0.0 **** 0.06
26795 H 15.521059961708193 79.17974971347067 46.19926258547429 H 0.0 **** 0.06
26796 C 95.17402608828058 21.68337753009007 53.27605321418327 C 0.0 **** -0.24
26797 H 94.15673143969644 21.302701117716538 53.189214900243215 H 0.0 **** 0.06
26798 H 95.75932249809557 21.013085154962255 53.905731005189494 H 0.0 **** 0.06
26799 H 95.15211981122576 22.676733451208378 53.72435221881777 H 0.0 **** 0.06
26800 H 95.62692039692297 21.739844551347403 52.28654775671117 H 0.0 **** 0.06
26801 C 18.364252974801104 91.4318105711815 41.75221891470707 C 0.0 **** -0.24
26802 H 17.701113832487394 92.28298046553365 41.90575437660152 H 0.0 **** 0.06
26803 H 18.170485111785382 90.67850567785811 42.51656875142382 H 0.0 **** 0.06
26804 H 19.400471007486985 91.76111157024003 41.8212974745058 H 0.0 **** 0.06
26805 H 18.18392645061084 91.00380768213444 40.76638134741853 H 0.0 **** 0.06
26806 C 85.66099607503565 61.44079744909908 97.20584688775938 C 0.0 **** -0.24
26807 H 86.01549902430858 61.6674129283158 98.2111995273545 H 0.0 **** 0.06
26808 H 84.62238043052378 61.11394747347529 97.25176505311333 H 0.0 **** 0.06
26809 H 86.27276523847331 60.64713161783504 96.775750440232 H 0.0 **** 0.06
26810 H 85.73518146121035 62.33247740927288 96.58384913094233 H 0.0 **** 0.06
26811 C 58.68518188807137 77.99847211056819 19.87835158069069 C 0.0 **** -0.24
26812 H 57.84495601782634 77.70771159917774 20.50969596023006 H 0.0 **** 0.06
26813 H 58.61357113296774 77.48480887623086 18.919810069441013 H 0.0 **** 0.06
26814 H 59.619297755325135 77.72434792466838 20.36864061835098 H 0.0 **** 0.06
26815 H 58.661521371375606 79.07529746793453 19.716320389191253 H 0.0 **** 0.06
26816 C 19.980592010487555 71.5391243400399 34.024203767378026 C 0.0 **** -0.24
26817 H 20.08956791798252 72.6141965216014 34.16700753726161 H 0.0 **** 0.06
26818 H 20.95822169178156 71.0621081676789 34.09820832468165 H 0.0 **** 0.06
26819 H 19.55537209058896 71.34484845373606 33.03902469020193 H 0.0 **** 0.06
26820 H 19.319863801855902 71.13556093945505 34.79044824711582 H 0.0 **** 0.06
26821 C 76.16261103934798 31.7454506950221 89.16364757701528 C 0.0 **** -0.24
26822 H 76.50531181993637 31.523594549728813 90.17428494353275 H 0.0 **** 0.06
26823 H 75.20942804275177 32.27280910161193 89.21074522020058 H 0.0 **** 0.06
26824 H 76.03534017838709 30.81385329714101 88.61087424623916 H 0.0 **** 0.06
26825 H 76.8990650817762 32.369649452040335 88.65953239149168 H 0.0 **** 0.06
26826 C 87.10185425319517 99.89578737051964 63.44022271790416 C 0.0 **** -0.24
26827 H 87.48854823197054 99.11478503212703 64.0940077892658 H 0.0 **** 0.06
26828 H 87.9291665678562 100.50156076896964 63.068869992193214 H 0.0 **** 0.06
26829 H 86.41039328847094 100.52699945426211 63.99878598612169 H 0.0 **** 0.06
26830 H 86.57930892448307 99.43980422671964 62.59922710403609 H 0.0 **** 0.06
26831 C 72.5303913035649 79.40000013640673 35.454495664978026 C 0.0 **** -0.24
26832 H 72.45390694082727 78.31222032597034 35.479398887110335 H 0.0 **** 0.06
26833 H 73.25744897768118 79.69552975984038 34.69869331105491 H 0.0 **** 0.06
26834 H 72.85106797898948 79.76395549628822 36.430771673344054 H 0.0 **** 0.06
26835 H 71.5570172993192 79.82595875163355 35.20929530852413 H 0.0 **** 0.06
26836 C 83.41743321435587 63.081355346232385 24.22750830981002 C 0.0 **** -0.24
26837 H 82.42852971907371 63.07169291559944 23.76930598401856 H 0.0 **** 0.06
26838 H 83.32113904735314 63.27787836005163 25.295498020088615 H 0.0 **** 0.06
26839 H 84.0228283332653 63.8629201455185 23.76747665750719 H 0.0 **** 0.06
26840 H 83.89727640438173 62.114331478918984 24.077567639250844 H 0.0 **** 0.06
26841 C 4.824299193805302 47.66193386765161 3.6568336173017713 C 0.0 **** -0.24
26842 H 5.089937280242509 47.48513724861391 2.6147269954943226 H 0.0 **** 0.06
26843 H 5.7314755200323475 47.827833416645376 4.23842827673937 H 0.0 **** 0.06
26844 H 4.294240408650765 46.7942272947908 4.0495165043194845 H 0.0 **** 0.06
26845 H 4.183068793339089 48.54080603267522 3.7238869820276648 H 0.0 **** 0.06
26846 C 37.98620107072577 27.450165453278316 51.110688367516815 C 0.0 **** -0.24
26847 H 38.209398434964044 28.33383816460082 51.708916887773796 H 0.0 **** 0.06
26848 H 38.224044692280785 26.554021863047666 51.683472726587354 H 0.0 **** 0.06
26849 H 38.581956590500695 27.468634330121176 50.19859019335408 H 0.0 **** 0.06
26850 H 36.92635274329254 27.445993108386517 50.85236865678294 H 0.0 **** 0.06
26851 C 37.983577739925124 54.86209257711897 6.959473330423123 C 0.0 **** -0.24
26852 H 38.57188939643714 53.944579864234356 6.953845420840679 H 0.0 **** 0.06
26853 H 38.61025824564189 55.69336466216714 7.281147208405059 H 0.0 **** 0.06
26854 H 37.14481465945954 54.75024894574284 7.646657707318582 H 0.0 **** 0.06
26855 H 37.60642697861823 55.05741026296198 5.955537985461632 H 0.0 **** 0.06
26856 C 76.67532990736976 35.53904093465479 82.26622241004065 C 0.0 **** -0.24
26857 H 77.42795092470726 35.242792558173505 81.53494242939026 H 0.0 **** 0.06
26858 H 75.68533193931279 35.47150101125436 81.81410263249106 H 0.0 **** 0.06
26859 H 76.8607831512843 36.56460424241129 82.58391221119938 H 0.0 **** 0.06
26860 H 76.72717171356425 34.87606940972114 83.12937072003564 H 0.0 **** 0.06
26861 C 20.522884908260146 79.03060972085291 34.00594225928643 C 0.0 **** -0.24
26862 H 20.03771670153975 79.21033121306306 33.04643099201914 H 0.0 **** 0.06
26863 H 21.57520440313743 78.79828562572277 33.842758152284006 H 0.0 **** 0.06
26864 H 20.03811838774015 78.19292833713459 34.507100090374195 H 0.0 **** 0.06
26865 H 20.439486673066654 79.92288454634979 34.62757824983743 H 0.0 **** 0.06
26866 C 106.93980884166366 108.5751027745999 97.63481484614266 C 0.0 **** -0.24
26867 H 106.38625319022044 107.7122502006441 97.26268381414576 H 0.0 **** 0.06
26868 H 106.32869633116671 109.47118094286584 97.52833357136144 H 0.0 **** 0.06
26869 H 107.85896367107928 108.69068481468751 97.06064061829811 H 0.0 **** 0.06
26870 H 107.1844859635622 108.4235777729387 98.68589339600068 H 0.0 **** 0.06
26871 C 6.960624404577658 66.40979073715198 44.14364865948943 C 0.0 **** -0.24
26872 H 7.474725588415225 66.61583114621996 43.20433122972011 H 0.0 **** 0.06
26873 H 5.888544573226284 66.33451613355021 43.95994654856139 H 0.0 **** 0.06
26874 H 7.1533335644136 67.21829056095663 44.847862412370034 H 0.0 **** 0.06
26875 H 7.326057073444872 65.47081339671632 44.55872739014265 H 0.0 **** 0.06
26876 C 12.737731392566076 89.98677678509206 76.57055818237592 C 0.0 **** -0.24
26877 H 13.324939487023542 89.40573757845927 75.85931984941126 H 0.0 **** 0.06
26878 H 11.79630482820859 89.47324390655737 76.76843420936873 H 0.0 **** 0.06
26879 H 12.532969979261253 90.97235624896808 76.15318578608752 H 0.0 **** 0.06
26880 H 13.295428008095143 90.09451179682583 77.50041434012502 H 0.0 **** 0.06
26881 C 52.15571431586142 13.126936014827606 108.91184941929642 C 0.0 **** -0.24
26882 H 52.15875310935681 12.169555789706635 108.38880751323337 H 0.0 **** 0.06
26883 H 52.33519924062642 13.931630255859929 108.19775118941934 H 0.0 **** 0.06
26884 H 52.94189237647612 13.129060680118641 109.66713971316003 H 0.0 **** 0.06
26885 H 51.18877880910742 13.275398216382044 109.39248499801141 H 0.0 **** 0.06
26886 C 63.344901700916694 46.87433338178846 8.10488260434309 C 0.0 **** -0.24
26887 H 62.4027727050221 46.394717636323946 7.839137307347386 H 0.0 **** 0.06
26888 H 64.03814652293622 46.8030259030937 7.26604842306881 H 0.0 **** 0.06
26889 H 63.773608680487854 46.37553153230118 8.974081605616675 H 0.0 **** 0.06
26890 H 63.165722453748344 47.923414928742176 8.339180581958033 H 0.0 **** 0.06
26891 C 57.32334736767359 29.940521160431473 66.05088848219957 C 0.0 **** -0.24
26892 H 57.61776328076121 30.295030773899462 65.0633450439109 H 0.0 **** 0.06
26893 H 57.09657762830051 30.793652312955615 66.6905091499197 H 0.0 **** 0.06
26894 H 58.138640808650166 29.364072705663546 66.48733047889442 H 0.0 **** 0.06
26895 H 56.43978474613499 29.30815341097746 65.96031243699618 H 0.0 **** 0.06
26896 C 54.614629995077394 82.8210161333362 34.51019325147553 C 0.0 **** -0.24
26897 H 54.785152017003156 83.49366000566113 33.669835407529874 H 0.0 **** 0.06
26898 H 53.56553402414846 82.86270388503323 34.802016157810215 H 0.0 **** 0.06
26899 H 55.23873513234207 83.12464207616847 35.35120690907647 H 0.0 **** 0.06
26900 H 54.87036240638082 81.80242342509248 34.21771126852332 H 0.0 **** 0.06
26901 C 44.05658154962465 37.89550468670754 105.0026917584474 C 0.0 **** -0.24
26902 H 43.637024676107046 37.05438508584 105.55510350552801 H 0.0 **** 0.06
26903 H 44.752749792513214 37.52469324872989 104.24967876269712 H 0.0 **** 0.06
26904 H 44.5833161840809 38.55530530103714 105.69172630793803 H 0.0 **** 0.06
26905 H 43.252622367206925 38.44557439097799 104.51364389125817 H 0.0 **** 0.06
26906 C 80.55702539059712 104.74048080212265 83.28143751276421 C 0.0 **** -0.24
26907 H 80.29230757669558 105.78995334395654 83.15331368422974 H 0.0 **** 0.06
26908 H 81.63227635838723 104.6181757267149 83.14669054077237 H 0.0 **** 0.06
26909 H 80.02717673480657 104.13935111227161 82.54186303439971 H 0.0 **** 0.06
26910 H 80.27601269574177 104.4146694637965 84.28296569724648 H 0.0 **** 0.06
26911 C 108.44047340656971 56.55771898419325 56.655992885478526 C 0.0 **** -0.24
26912 H 109.25125172021114 57.18401841741708 56.284429448003834 H 0.0 **** 0.06
26913 H 107.54199581572175 56.738730527393166 56.06546622619055 H 0.0 **** 0.06
26914 H 108.24432882004089 56.79949193946964 57.70078378467099 H 0.0 **** 0.06
26915 H 108.72527949051607 55.508439422513504 56.57310258180024 H 0.0 **** 0.06
26916 C 35.6289047738191 46.36584809477688 51.68310320381399 C 0.0 **** -0.24
26917 H 36.62753318595111 46.53765562285233 52.08623766046301 H 0.0 **** 0.06
26918 H 35.020065506826086 45.85380811095982 52.428688006628185 H 0.0 **** 0.06
26919 H 35.700986425148955 45.749710149020984 50.78709142448783 H 0.0 **** 0.06
26920 H 35.16944031606664 47.320675618270656 51.431306496627116 H 0.0 **** 0.06
26921 C 79.34652461387424 108.51719045820866 17.450657878320726 C 0.0 **** -0.24
26922 H 79.10319139355954 109.57373609155806 17.34761403550948 H 0.0 **** 0.06
26923 H 80.27536611067404 108.30471578258039 16.921401943556248 H 0.0 **** 0.06
26924 H 78.54149699805063 107.91577883333387 17.02823337171776 H 0.0 **** 0.06
26925 H 79.46610922276233 108.27348174964534 18.50632802167638 H 0.0 **** 0.06
26926 C 97.1020810931655 63.14061846306086 47.856558850514034 C 0.0 **** -0.24
26927 H 97.64852741564079 62.95946598275032 48.78142478359425 H 0.0 **** 0.06
26928 H 97.53277271428067 62.538621743651746 47.055722040197566 H 0.0 **** 0.06
26929 H 97.17215815917879 64.19669739204605 47.59504137730403 H 0.0 **** 0.06
26930 H 96.05552445445521 62.868744710054145 47.99337521807331 H 0.0 **** 0.06
26931 C 50.17245231798324 72.51898814990898 33.02236272998084 C 0.0 **** -0.24
26932 H 49.39556892698434 72.17136017954184 33.702942503809595 H 0.0 **** 0.06
26933 H 51.14791232230374 72.40557310414142 33.497010756049974 H 0.0 **** 0.06
26934 H 50.00434067587557 73.56913805802893 32.78344535443307 H 0.0 **** 0.06
26935 H 50.143377580972725 71.92909517385863 32.10538188088293 H 0.0 **** 0.06
26936 C 46.60511055544916 71.37796074900353 43.19771370769223 C 0.0 **** -0.24
26937 H 46.24077205320964 72.21631492537432 42.60355916658261 H 0.0 **** 0.06
26938 H 45.90207895925204 71.17253424994709 44.00511968006134 H 0.0 **** 0.06
26939 H 47.579709304606354 71.62819802050427 43.61908592346401 H 0.0 **** 0.06
26940 H 46.69910035915049 70.49687760399189 42.56351639272009 H 0.0 **** 0.06
26941 C 81.87441373192024 19.965610605550054 32.187681719871534 C 0.0 **** -0.24
26942 H 81.86610045207865 20.220563497840942 31.12808426740702 H 0.0 **** 0.06
26943 H 81.69560999733163 20.86471584216858 32.77853866466427 H 0.0 **** 0.06
26944 H 82.84425405496495 19.54446466867944 32.452390441182274 H 0.0 **** 0.06
26945 H 81.09174048593333 19.234348841784836 32.392236697294436 H 0.0 **** 0.06
26946 C 101.76957349047626 71.89110535171775 106.13080592966459 C 0.0 **** -0.24
26947 H 102.52513720335719 71.86574476549784 105.34582175095981 H 0.0 **** 0.06
26948 H 101.36364464264756 72.89959429569599 106.21182875417595 H 0.0 **** 0.06
26949 H 102.22233338338341 71.60384139664775 107.07986165436616 H 0.0 **** 0.06
26950 H 100.96716795397782 71.194472938388 105.88507117409743 H 0.0 **** 0.06
26951 C 48.799451078578 101.32907844529177 88.59359992686416 C 0.0 **** -0.24
26952 H 49.70812307744059 101.92689243131151 88.52951830801877 H 0.0 **** 0.06
26953 H 48.42558404010008 101.12827196491035 87.58977322781294 H 0.0 **** 0.06
26954 H 48.04528751509396 101.87360559212632 89.1613642668309 H 0.0 **** 0.06
26955 H 49.01996604334007 100.38600713240803 89.09488484748289 H 0.0 **** 0.06
26956 C 27.015586766785805 66.87191058330961 25.545879727542342 C 0.0 **** -0.24
26957 H 26.00850574838402 67.24587970265472 25.728416704414485 H 0.0 **** 0.06
26958 H 27.298319304249134 67.07764505675806 24.51295254881944 H 0.0 **** 0.06
26959 H 27.04144212937655 65.79585155105667 25.721217637679445 H 0.0 **** 0.06
26960 H 27.715377317024974 67.36638280529189 26.22005426091812 H 0.0 **** 0.06
26961 C 48.91345483444627 45.649727338984405 22.19111087191024 C 0.0 **** -0.24
26962 H 47.88758614311695 45.416656022553354 22.474361637710217 H 0.0 **** 0.06
26963 H 48.924102005132625 46.54556230796603 21.569355884433065 H 0.0 **** 0.06
26964 H 49.33518461454241 44.81409232825348 21.631805027599256 H 0.0 **** 0.06
26965 H 49.508388666901396 45.823829355031734 23.08773514707667 H 0.0 **** 0.06
26966 C 71.10815986624576 17.512227730124607 35.521548510929705 C 0.0 **** -0.24
26967 H 70.60847643537599 18.480045464965315 35.56663929171401 H 0.0 **** 0.06
26968 H 71.66235309942465 17.346302628898343 36.44541407944715 H 0.0 **** 0.06
26969 H 71.79768811340763 17.499523528045245 34.67642286972392 H 0.0 **** 0.06
26970 H 70.36458058180331 16.725294009553977 35.39554840001763 H 0.0 **** 0.06
26971 C 81.41465437690802 52.173450097645 24.97279493601482 C 0.0 **** -0.24
26972 H 81.50875236726269 51.759076653096315 23.968575276130167 H 0.0 **** 0.06
26973 H 81.53287365441315 53.2572789100804 24.930141813243537 H 0.0 **** 0.06
26974 H 82.18545027087102 51.74879268789556 25.614404271547073 H 0.0 **** 0.06
26975 H 80.43119453187492 51.93060234921455 25.374883924680972 H 0.0 **** 0.06
26976 C 82.3599475577414 35.03014726990838 84.79581579612828 C 0.0 **** -0.24
26977 H 82.16855675132479 35.27479262090151 83.75080187456615 H 0.0 **** 0.06
26978 H 83.23213633642376 34.37952407442222 84.86311421721089 H 0.0 **** 0.06
26979 H 81.49183528347089 34.51959061452496 85.21343508864928 H 0.0 **** 0.06
26980 H 82.54555457144039 35.94748710628511 85.35435094770051 H 0.0 **** 0.06
26981 C 48.05998709651692 3.4883000070024703 85.74951379731806 C 0.0 **** -0.24
26982 H 47.06062850342903 3.573060187847142 85.3242492789575 H 0.0 **** 0.06
26983 H 48.07263363200531 2.6865302314863584 86.48913346385837 H 0.0 **** 0.06
26984 H 48.33289626490523 4.428492502152109 86.22745255906864 H 0.0 **** 0.06
26985 H 48.77412227634227 3.262910150493065 84.95735836394135 H 0.0 **** 0.06
26986 C 93.18865975356994 24.583110907261812 39.993125433126266 C 0.0 **** -0.24
26987 H 93.27374265391461 23.970124939038556 39.09513376866059 H 0.0 **** 0.06
26988 H 94.0278361859925 25.277183572804518 40.03962182229454 H 0.0 **** 0.06
26989 H 93.19879889268918 23.940006590032965 40.8734934979902 H 0.0 **** 0.06
26990 H 92.2543384008635 25.14319716670309 39.963128300593006 H 0.0 **** 0.06
26991 C 74.91960832267988 45.03861868449138 103.19167130008276 C 0.0 **** -0.24
26992 H 74.62247552033789 46.001542304248346 102.77662425776681 H 0.0 **** 0.06
26993 H 75.9253299740133 45.11602907957683 103.60485341287705 H 0.0 **** 0.06
26994 H 74.90592340322908 44.28417333855913 102.4062028291803 H 0.0 **** 0.06
26995 H 74.22296712536938 44.7536015092158 103.98149927361769 H 0.0 **** 0.06
26996 C 46.83847158926815 50.9730495867185 56.57558845871034 C 0.0 **** -0.24
26997 H 46.11511058839207 50.74467790582656 55.79296013590118 H 0.0 **** 0.06
26998 H 46.70419692502344 52.00441469645949 56.904149362085604 H 0.0 **** 0.06
26999 H 47.84728383156801 50.844503970178835 56.18559915223875 H 0.0 **** 0.06
27000 H 46.68555808433348 50.30002004332255 57.41865933851153 H 0.0 **** 0.06
27001 C 56.139178741959384 82.21194487698324 17.598456055763407 C 0.0 **** -0.24
27002 H 56.35145759979692 81.68787031872348 16.66599240400579 H 0.0 **** 0.06
27003 H 55.13181134382995 82.62594802602705 17.56049347376971 H 0.0 **** 0.06
27004 H 56.859242958958454 83.01816822968557 17.734970684457338 H 0.0 **** 0.06
27005 H 56.214074649228515 81.51250496862265 18.431951318025867 H 0.0 **** 0.06
27006 C 34.044895125777884 80.88110318160597 23.528334407403264 C 0.0 **** -0.24
27007 H 34.184862813213954 79.83528456575311 23.252293825126387 H 0.0 **** 0.06
27008 H 34.952970735308156 81.25670829260224 23.999392073945813 H 0.0 **** 0.06
27009 H 33.21211682150303 80.96256184583899 24.22698714920284 H 0.0 **** 0.06
27010 H 33.8285703143755 81.46628126158788 22.634954859244374 H 0.0 **** 0.06
27011 C 45.55317838631581 62.34954937437652 71.22045475724263 C 0.0 **** -0.24
27012 H 45.37669338050637 61.88738839425855 72.19180234802087 H 0.0 **** 0.06
27013 H 46.500604920160576 62.8894109085341 71.2427577321593 H 0.0 **** 0.06
27014 H 44.74396164627703 63.044780549419954 70.99704091771395 H 0.0 **** 0.06
27015 H 45.592109022256636 61.577156932576145 70.45326435413125 H 0.0 **** 0.06
27016 C 11.490134657064338 46.25382762697251 92.08447667318681 C 0.0 **** -0.24
27017 H 11.184754992167264 47.26655465016697 91.81935188619555 H 0.0 **** 0.06
27018 H 12.577911326783717 46.19107367547362 92.08529937952216 H 0.0 **** 0.06
27019 H 11.086273239836196 45.5512373286419 91.35529719705444 H 0.0 **** 0.06
27020 H 11.109723039549781 46.00855727994737 93.07571795972338 H 0.0 **** 0.06
27021 C 57.61328854018774 22.69585671546235 19.332929876288176 C 0.0 **** -0.24
27022 H 56.65985690979633 22.970933980420188 19.78623947377787 H 0.0 **** 0.06
27023 H 57.4309301745526 22.086277528358153 18.447242819282707 H 0.0 **** 0.06
27024 H 58.20521737797952 22.128675447744993 20.05025368797274 H 0.0 **** 0.06
27025 H 58.15295947667855 23.598636999791434 19.049480008648516 H 0.0 **** 0.06
27026 C 75.46984992501648 85.98433504141929 18.443942548293677 C 0.0 **** -0.24
27027 H 75.20372311067763 85.66267891113523 19.45120703877879 H 0.0 **** 0.06
27028 H 75.43479719193314 87.07275142645705 18.38985024925765 H 0.0 **** 0.06
27029 H 74.76325102144547 85.5611447202408 17.730155610167458 H 0.0 **** 0.06
27030 H 76.47690921789089 85.64067539164563 18.206897179558638 H 0.0 **** 0.06
27031 C 20.782843331363196 61.285748512589365 5.543888787521922 C 0.0 **** -0.24
27032 H 21.285383222492097 62.01613499081435 6.178971597034717 H 0.0 **** 0.06
27033 H 20.711813907507217 60.33454695964791 6.072379412757215 H 0.0 **** 0.06
27034 H 21.352119782823518 61.150382553548695 4.62542858883964 H 0.0 **** 0.06
27035 H 19.78147603035343 61.64263862825206 5.302918165498227 H 0.0 **** 0.06
27036 C 76.2304545600507 19.5036594942884 77.01695603111364 C 0.0 **** -0.24
27037 H 75.5699600809597 18.96523150958194 76.33800966849083 H 0.0 **** 0.06
27038 H 75.63333012623687 20.05552183584996 77.74332250909151 H 0.0 **** 0.06
27039 H 76.84704005787762 20.19872217984772 76.44881260733598 H 0.0 **** 0.06
27040 H 76.87173079428466 18.79234583644393 77.53909645344868 H 0.0 **** 0.06
27041 C 107.4489506104392 4.4192020504484475 37.581757056377455 C 0.0 **** -0.24
27042 H 107.87600722088953 4.261785866584489 38.57253386989984 H 0.0 **** 0.06
27043 H 108.21276375347557 4.820931771821478 36.916274858952875 H 0.0 **** 0.06
27044 H 106.619581817184 5.123252443360869 37.651594925196605 H 0.0 **** 0.06
27045 H 107.0859301813255 3.469369857926779 37.18786381235685 H 0.0 **** 0.06
27046 C 67.7040230902597 49.70565227762271 61.635271740306735 C 0.0 **** -0.24
27047 H 67.23920964228526 48.95481868608086 62.27472484216119 H 0.0 **** 0.06
27048 H 67.48665581144212 49.478014744825835 60.59148176813747 H 0.0 **** 0.06
27049 H 68.7824442550843 49.69926951296433 61.79233508757278 H 0.0 **** 0.06
27050 H 67.30590345239621 50.68978396026997 61.88351854323113 H 0.0 **** 0.06
27051 C 19.535062487443675 8.18023782885544 12.06920246397577 C 0.0 **** -0.24
27052 H 18.995960581008582 8.744193147846374 11.308154906681157 H 0.0 **** 0.06
27053 H 20.60741048327739 8.331123161793286 11.940904733264183 H 0.0 **** 0.06
27054 H 19.302830989585953 7.1202648973140015 11.968610446986435 H 0.0 **** 0.06
27055 H 19.235049179849785 8.52578691178202 13.058232132178517 H 0.0 **** 0.06
27056 C 0.5969732540997938 83.23442880540352 43.32190034893182 C 0.0 **** -0.24
27057 H 0.29996701857925245 82.19125521094286 43.219211717403965 H 0.0 **** 0.06
27058 H 0.00617844160842651 83.84906581671719 42.642489786227884 H 0.0 **** 0.06
27059 H 1.6542906493338592 83.33724834274757 43.07808705232935 H 0.0 **** 0.06
27060 H 0.4277880611480782 83.5611092269734 44.348793830629745 H 0.0 **** 0.06
27061 C 83.31259025643845 94.83118816478084 83.04607360048749 C 0.0 **** -0.24
27062 H 83.34767483627027 94.0162961916275 82.32338004088467 H 0.0 **** 0.06
27063 H 82.7918091516318 95.6824413787316 82.60846323434333 H 0.0 **** 0.06
27064 H 84.32772887831764 95.12415969175001 83.31397307118755 H 0.0 **** 0.06
27065 H 82.78187910365654 94.50073913071638 83.93994219161536 H 0.0 **** 0.06
27066 C 4.0046256737650765 13.462574376643545 31.081288703317327 C 0.0 **** -0.24
27067 H 3.3568319020893256 12.600668002098956 31.243860337258887 H 0.0 **** 0.06
27068 H 4.30131812089131 13.879616197021065 32.04339345338534 H 0.0 **** 0.06
27069 H 3.4672124657365373 14.21682214719742 30.507692033976284 H 0.0 **** 0.06
27070 H 4.891935162307021 13.150101563099412 30.530261934713423 H 0.0 **** 0.06
27071 C 88.08048860085921 41.90492346237134 1.5861681580588254 C 0.0 **** -0.24
27072 H 87.92118460199379 41.05469019768313 2.250127151599429 H 0.0 **** 0.06
27073 H 88.37300774392543 42.77503737968607 2.175077534287965 H 0.0 **** 0.06
27074 H 87.15757269125777 42.12329732977557 1.048579133779299 H 0.0 **** 0.06
27075 H 88.86882618181858 41.666381265292216 0.8719179475128982 H 0.0 **** 0.06
27076 C 73.01648085948 75.33029377567462 109.54411588352258 C 0.0 **** -0.24
27077 H 74.04460208389003 75.32731697280451 109.90511133099918 H 0.0 **** 0.06
27078 H 73.0034551697911 75.0770172588434 108.48409267901675 H 0.0 **** 0.06
27079 H 72.58463454038912 76.32031436388695 109.68685971245961 H 0.0 **** 0.06
27080 H 72.43468699777708 74.59573874368823 110.1015230087649 H 0.0 **** 0.06
27081 C 70.45123042871067 2.3936843445693805 79.90844497110015 C 0.0 **** -0.24
27082 H 70.68574622910431 1.5840279346283497 79.21855539980021 H 0.0 **** 0.06
27083 H 69.41009061305823 2.691307674143232 79.77927393142139 H 0.0 **** 0.06
27084 H 71.100861790129 3.244677294656686 79.70301135196189 H 0.0 **** 0.06
27085 H 70.6082454352003 2.056128612389756 80.93310652491493 H 0.0 **** 0.06
27086 C 25.647990412907404 76.73977759601253 89.97246620348457 C 0.0 **** -0.24
27087 H 25.561823924210444 76.14264943454337 89.06428219561741 H 0.0 **** 0.06
27088 H 26.13543185199012 76.15087930257785 90.74945880804823 H 0.0 **** 0.06
27089 H 24.654334474786822 77.03453296857485 90.30988435562047 H 0.0 **** 0.06
27090 H 26.24080603075282 77.63134350798062 89.7649263395576 H 0.0 **** 0.06
27091 C 97.68708054698064 39.91317872494585 24.420387688596776 C 0.0 **** -0.24
27092 H 97.2049296671079 38.94412228138822 24.541192920395332 H 0.0 **** 0.06
27093 H 97.4349115000993 40.55243485502331 25.26677605127216 H 0.0 **** 0.06
27094 H 97.34178329576707 40.37871723044901 23.497348922177025 H 0.0 **** 0.06
27095 H 98.7679963044611 39.77800031591289 24.37625367749783 H 0.0 **** 0.06
27096 C 35.060021980993355 49.861435469782066 31.947683905247693 C 0.0 **** -0.24
27097 H 35.53852080861262 48.89300443772447 31.797876933155592 H 0.0 **** 0.06
27098 H 34.14742920854536 49.91110800751784 31.353543396965826 H 0.0 **** 0.06
27099 H 35.74055148537818 50.65408200559375 31.63662132384986 H 0.0 **** 0.06
27100 H 34.8149944509895 49.98586690325652 33.002254039620844 H 0.0 **** 0.06
27101 C 82.84598001000732 32.20769268795772 29.70356440858461 C 0.0 **** -0.24
27102 H 82.17900702893304 32.56481958064521 30.488161300331114 H 0.0 **** 0.06
27103 H 82.84102996764632 31.117827048586577 29.68966316106102 H 0.0 **** 0.06
27104 H 83.85781632600033 32.564906185967004 29.896879394079576 H 0.0 **** 0.06
27105 H 82.50603223758714 32.585633750385455 28.73915010532778 H 0.0 **** 0.06
27106 C 37.898700985339985 105.44325199516283 68.84678053788362 C 0.0 **** -0.24
27107 H 38.6726079212753 104.6839771091735 68.96315325148993 H 0.0 **** 0.06
27108 H 37.3845801804179 105.5864347769807 69.79774342057713 H 0.0 **** 0.06
27109 H 37.182726768183755 105.11888682621401 68.09105766354003 H 0.0 **** 0.06
27110 H 38.35568282490462 106.38277559041762 68.53446191207975 H 0.0 **** 0.06
27111 C 57.65130382259423 7.21334475700931 88.86070615652739 C 0.0 **** -0.24
27112 H 58.176111457663694 6.806741104299675 89.72448576834233 H 0.0 **** 0.06
27113 H 58.344894885781855 7.797316011557172 88.25598402341666 H 0.0 **** 0.06
27114 H 56.83586707554343 7.853114119345463 89.19915404308188 H 0.0 **** 0.06
27115 H 57.24696964919269 6.395878023323988 88.26310937240498 H 0.0 **** 0.06
27116 C 48.71797835340586 43.08787776084574 29.626973037973812 C 0.0 **** -0.24
27117 H 48.82472932421532 42.028943769247064 29.864188003473885 H 0.0 **** 0.06
27118 H 48.44513060425556 43.636069637792275 30.528957326438103 H 0.0 **** 0.06
27119 H 47.93938666544517 43.214031968002416 28.8746546460647 H 0.0 **** 0.06
27120 H 49.66225641597137 43.471122699041814 29.240259810423538 H 0.0 **** 0.06
27121 C 61.57169501407623 23.07879484830599 98.41245658076821 C 0.0 **** -0.24
27122 H 60.50425758038456 23.244311489224714 98.26482374092669 H 0.0 **** 0.06
27123 H 62.089160520128644 24.039065008915514 98.4305573205009 H 0.0 **** 0.06
27124 H 61.961355907575424 22.470964473232158 97.59666897228576 H 0.0 **** 0.06
27125 H 61.73164476753519 22.561889052694852 99.35943937362839 H 0.0 **** 0.06
27126 C 0.3835842607799691 106.08828248510733 104.99905563904974 C 0.0 **** -0.24
27127 H 1.1628136403580243 106.81517107442824 104.76984740181248 H 0.0 **** 0.06
27128 H -0.46151753407553997 106.59796653722267 105.46237627679069 H 0.0 **** 0.06
27129 H 0.7766361808387501 105.33831360094962 105.68655458330697 H 0.0 **** 0.06
27130 H 0.0562001763837543 105.60263424156108 104.08028076861534 H 0.0 **** 0.06
27131 C 49.65381838459359 73.91418705453417 22.562375614427367 C 0.0 **** -0.24
27132 H 49.98313946769491 72.958254058373 22.97073775745443 H 0.0 **** 0.06
27133 H 48.67866266139413 74.16915918653774 22.977370064493243 H 0.0 **** 0.06
27134 H 49.57993437297574 73.8396745831022 21.47791175760949 H 0.0 **** 0.06
27135 H 50.37492654560134 74.68854869704035 22.82568146833367 H 0.0 **** 0.06
27136 C 16.671100775567552 47.125762676992736 21.570801006254783 C 0.0 **** -0.24
27137 H 16.990825006562858 48.06750027379587 21.125456707270587 H 0.0 **** 0.06
27138 H 17.53010277890641 46.46179116303853 21.67180245146392 H 0.0 **** 0.06
27139 H 15.922480566317262 46.65727151321482 20.93240250711807 H 0.0 **** 0.06
27140 H 16.24113838657621 47.317168442251386 22.554260751164293 H 0.0 **** 0.06
27141 C 46.082429246040256 27.466668121186864 48.599130487088246 C 0.0 **** -0.24
27142 H 45.99123145949257 26.416728761334422 48.32233610822207 H 0.0 **** 0.06
27143 H 45.11472647140847 27.838342523207835 48.936602501899706 H 0.0 **** 0.06
27144 H 46.41180166727287 28.043116245867054 47.733769691471316 H 0.0 **** 0.06
27145 H 46.81250544438662 27.56817799337791 49.40254656110667 H 0.0 **** 0.06
27146 C 48.45790257036509 66.70933646579834 13.723818727207103 C 0.0 **** -0.24
27147 H 48.36245642144008 65.63483337811692 13.88350925082544 H 0.0 **** 0.06
27148 H 48.37252409256719 67.22695156821938 14.679200314837633 H 0.0 **** 0.06
27149 H 47.66724917901059 67.04793423037526 13.05441106273145 H 0.0 **** 0.06
27150 H 49.42932827889221 66.9246451035498 13.278482720457006 H 0.0 **** 0.06
27151 C 77.54835793734551 12.072930139649994 15.659094265315844 C 0.0 **** -0.24
27152 H 77.80753076566758 11.728839754638361 16.66092966688349 H 0.0 **** 0.06
27153 H 78.06025657122802 11.456296059181316 14.919895312384511 H 0.0 **** 0.06
27154 H 77.85466789971531 13.112557088303845 15.542171689498545 H 0.0 **** 0.06
27155 H 76.47018924677629 11.993710795097837 15.516078578460451 H 0.0 **** 0.06
27156 C 98.94550337108049 102.17219363305648 8.814486069838608 C 0.0 **** -0.24
27157 H 99.31236019266879 101.14718415713409 8.871543312581991 H 0.0 **** 0.06
27158 H 97.982078380205 102.18586412893653 8.30413491228444 H 0.0 **** 0.06
27159 H 99.65823729045486 102.78255625784142 8.259562013665061 H 0.0 **** 0.06
27160 H 98.82956528113094 102.57346431071338 9.821339619964192 H 0.0 **** 0.06
27161 C 69.45413659481571 23.724579684227933 19.474235975782392 C 0.0 **** -0.24
27162 H 69.70331917884522 23.03853878010935 18.663949087825642 H 0.0 **** 0.06
27163 H 68.37387598127081 23.735558085853285 19.62078756247564 H 0.0 **** 0.06
27164 H 69.79725535965021 24.727147038382043 19.21918878812113 H 0.0 **** 0.06
27165 H 69.94253110481759 23.395450652468753 20.39154440627783 H 0.0 **** 0.06
27166 C 31.895804516585827 72.02486978041226 49.146551731448284 C 0.0 **** -0.24
27167 H 30.986173645379026 72.62282746466042 49.197641104383706 H 0.0 **** 0.06
27168 H 31.969889201610656 71.55978720015172 48.16405416593443 H 0.0 **** 0.06
27169 H 31.865602627531985 71.25149283117749 49.91443182067741 H 0.0 **** 0.06
27170 H 32.761371325607485 72.66698645758636 49.31124587879006 H 0.0 **** 0.06
27171 C 66.55125734352708 99.26571190920221 79.75508058328148 C 0.0 **** -0.24
27172 H 65.99197325161565 99.35246789279319 78.82381985669349 H 0.0 **** 0.06
27173 H 66.41420443475408 100.17073842705044 80.34662124070479 H 0.0 **** 0.06
27174 H 67.61063567060725 99.13489772236838 79.53116286874018 H 0.0 **** 0.06
27175 H 66.18976698827906 98.40458176997612 80.31711569764454 H 0.0 **** 0.06
27176 C 82.66795679830008 88.14737569871394 71.32973241664301 C 0.0 **** -0.24
27177 H 82.25421945928028 87.80981180234961 70.37995620672322 H 0.0 **** 0.06
27178 H 82.32409827950406 89.16233604816361 71.53498784495687 H 0.0 **** 0.06
27179 H 83.7571525599108 88.13618484398806 71.27673921543168 H 0.0 **** 0.06
27180 H 82.33569345568974 87.48276666167139 72.12735123045614 H 0.0 **** 0.06
27181 C 68.22381592409056 53.00939525180712 107.93237121954633 C 0.0 **** -0.24
27182 H 67.67586878628066 52.3853403239564 107.22711510031979 H 0.0 **** 0.06
27183 H 68.74729864345235 53.796999256693255 107.38958057793508 H 0.0 **** 0.06
27184 H 68.94662225613351 52.39822581521662 108.47376926012163 H 0.0 **** 0.06
27185 H 67.5259791129219 53.45786979343001 108.63914360904454 H 0.0 **** 0.06
27186 C 12.180316428132357 56.63173553770798 88.26536641048916 C 0.0 **** -0.24
27187 H 11.513072683170193 57.43894159363896 88.56624012599495 H 0.0 **** 0.06
27188 H 11.881792210071964 56.26077800658231 87.28508193957127 H 0.0 **** 0.06
27189 H 12.121842993461968 55.82221739386591 88.99347363750064 H 0.0 **** 0.06
27190 H 13.203060894588916 57.00398427122957 88.2179803729291 H 0.0 **** 0.06
27191 C 10.965173682719808 33.097119951374744 69.92172085812444 C 0.0 **** -0.24
27192 H 12.001208438284493 32.85454815586511 69.68678312584206 H 0.0 **** 0.06
27193 H 10.329447491123005 32.243504009143784 69.68407205337456 H 0.0 **** 0.06
27194 H 10.650321523366074 33.958764358715726 69.33365125253306 H 0.0 **** 0.06
27195 H 10.87801522299253 33.330416631551564 70.9831180266221 H 0.0 **** 0.06
27196 C 84.93631334102903 64.42496574962519 99.30477394870086 C 0.0 **** -0.24
27197 H 85.94434573379311 64.81326446000384 99.1540565136889 H 0.0 **** 0.06
27198 H 84.59048064233528 63.94782842895577 98.38821268641078 H 0.0 **** 0.06
27199 H 84.26682536708057 65.24565062633519 99.5633896381746 H 0.0 **** 0.06
27200 H 84.94576541875725 63.694998650768014 100.11432417355769 H 0.0 **** 0.06
27201 C 51.40016560350755 35.24932676677414 88.8756135080041 C 0.0 **** -0.24
27202 H 51.51206912298417 34.55264650550221 89.7062482449383 H 0.0 **** 0.06
27203 H 52.35770832895489 35.36309098304189 88.36708473626115 H 0.0 **** 0.06
27204 H 51.073132515744284 36.21695824336502 89.25479617605481 H 0.0 **** 0.06
27205 H 50.65975712095051 34.862685039836876 88.17583191206062 H 0.0 **** 0.06
27206 C 51.37446394843289 58.55690559656044 102.11209228258787 C 0.0 **** -0.24
27207 H 50.366090645501856 58.166915980489925 102.25413556224734 H 0.0 **** 0.06
27208 H 51.70776095855865 58.340026630877205 101.09622340314414 H 0.0 **** 0.06
27209 H 52.05021167167939 58.0849314985059 102.82480000050901 H 0.0 **** 0.06
27210 H 51.37251354298451 59.634509027630415 102.27152826588895 H 0.0 **** 0.06
27211 C 55.35522362789692 79.07560069392986 10.824840643837272 C 0.0 **** -0.24
27212 H 54.812197159254424 78.31044108993973 11.379282598223792 H 0.0 **** 0.06
27213 H 56.326887479988955 79.24022632599107 11.29117169854667 H 0.0 **** 0.06
27214 H 54.78532510027628 80.00412139093709 10.83354654356271 H 0.0 **** 0.06
27215 H 55.49754536163812 78.74569944098747 9.795819971367374 H 0.0 **** 0.06
27216 C 109.39911520529543 21.00833486827395 97.23006997061586 C 0.0 **** -0.24
27217 H 109.40066659754802 20.325243241671416 98.07949994914654 H 0.0 **** 0.06
27218 H 110.32825865277565 20.89334591784973 96.67003786363554 H 0.0 **** 0.06
27219 H 109.31720664264532 22.034087095381523 97.59000223563325 H 0.0 **** 0.06
27220 H 108.55313920113358 20.78095567945347 96.58216016076648 H 0.0 **** 0.06
27221 C 30.62411875392138 70.73988820274275 43.291903499968214 C 0.0 **** -0.24
27222 H 30.030432578306943 71.64592058748576 43.16637678499916 H 0.0 **** 0.06
27223 H 30.43747376409675 70.06573193952289 42.456166802299094 H 0.0 **** 0.06
27224 H 30.345087166504698 70.249490129283 44.22506158794275 H 0.0 **** 0.06
27225 H 31.681641543376372 71.00073689928837 43.32045742258646 H 0.0 **** 0.06
27226 C 86.71068569508839 80.13460965271 64.54126902916954 C 0.0 **** -0.24
27227 H 87.51629085292029 80.86283050792055 64.63712098993685 H 0.0 **** 0.06
27228 H 86.53241512244011 79.92758013105819 63.48617650644911 H 0.0 **** 0.06
27229 H 85.80319974391966 80.53623223048359 64.99175365732515 H 0.0 **** 0.06
27230 H 86.9918224476682 79.2132189064338 65.05008630724944 H 0.0 **** 0.06
27231 C 1.0332291914975293 48.15456770120977 36.72113476888117 C 0.0 **** -0.24
27232 H 1.7598046275064148 48.52929627142913 37.44200333661945 H 0.0 **** 0.06
27233 H 0.8469383998330429 47.09661159532061 36.91121259897773 H 0.0 **** 0.06
27234 H 1.4237997981415562 48.27977276376714 35.712345372305066 H 0.0 **** 0.06
27235 H 0.10154849394720422 48.712165485482444 36.82260253947919 H 0.0 **** 0.06
27236 C 87.49982102955107 28.350707720236244 54.31630195608261 C 0.0 **** -0.24
27237 H 86.63351660788595 28.197712580763778 53.67379053149074 H 0.0 **** 0.06
27238 H 87.3426774746278 27.841535858946713 55.2668043219831 H 0.0 **** 0.06
27239 H 87.63653137091677 29.417867706054494 54.493761122142615 H 0.0 **** 0.06
27240 H 88.3886360318757 27.947831187992023 53.830398396029835 H 0.0 **** 0.06
27241 C 87.14606255581685 93.68645853531868 101.62909639450241 C 0.0 **** -0.24
27242 H 87.22341814203583 92.67577526241169 101.23011741453513 H 0.0 **** 0.06
27243 H 88.04361783635795 94.24962376538214 101.37177684894678 H 0.0 **** 0.06
27244 H 87.04369462269285 93.64242246935208 102.71360066722373 H 0.0 **** 0.06
27245 H 86.27255726521169 94.1799624141593 101.20201872672075 H 0.0 **** 0.06
27246 C 51.42072106937271 79.82894114120955 39.687312485443414 C 0.0 **** -0.24
27247 H 50.72639249307508 80.35380272104584 39.032238486809106 H 0.0 **** 0.06
27248 H 52.44406712561696 80.06101628642762 39.39296945221861 H 0.0 **** 0.06
27249 H 51.25349471471299 78.75424438984186 39.60687513768559 H 0.0 **** 0.06
27250 H 51.257187622292605 80.14456351553923 40.71779547872296 H 0.0 **** 0.06
27251 C 75.57498428356831 30.857740492003813 31.055347531027166 C 0.0 **** -0.24
27252 H 75.14124049276856 29.91733501208222 31.39610073452681 H 0.0 **** 0.06
27253 H 76.65320390463228 30.741110302572793 30.941818865546168 H 0.0 **** 0.06
27254 H 75.36895072309636 31.63842367617579 31.787620569648908 H 0.0 **** 0.06
27255 H 75.13577852748148 31.13387123644145 30.09738880732337 H 0.0 **** 0.06
27256 C 28.758064031130232 87.68921337415418 92.89458675070442 C 0.0 **** -0.24
27257 H 29.811519772354814 87.83937658337251 92.65863152237205 H 0.0 **** 0.06
27258 H 28.6591351108284 86.87342734637639 93.61122831167609 H 0.0 **** 0.06
27259 H 28.214738512095607 87.4394507072301 91.98298163940535 H 0.0 **** 0.06
27260 H 28.347428186371502 88.60269696633526 93.32325530581572 H 0.0 **** 0.06
27261 C 55.099589117544525 81.03818649867642 56.361305563496785 C 0.0 **** -0.24
27262 H 55.974853321047675 81.40518516317097 56.89850615913605 H 0.0 **** 0.06
27263 H 55.39580896337537 80.71821170134437 55.361578666420996 H 0.0 **** 0.06
27264 H 54.3605336615754 81.83554833951763 56.28442265860565 H 0.0 **** 0.06
27265 H 54.66945230440669 80.19454562262405 56.90027514949449 H 0.0 **** 0.06
27266 C 25.41270425304475 23.508816634579205 97.54009736642116 C 0.0 **** -0.24
27267 H 24.939280450594453 24.133884534486015 98.29642323930176 H 0.0 **** 0.06
27268 H 24.672178878593485 23.214207149109654 96.79606220810105 H 0.0 **** 0.06
27269 H 25.829038688898834 22.618531681472632 98.01164610505207 H 0.0 **** 0.06
27270 H 26.211930580270433 24.06979319083547 97.05481550315781 H 0.0 **** 0.06
27271 C 32.37506580128543 26.00977112582632 60.8874556445266 C 0.0 **** -0.24
27272 H 32.47051842814048 25.155066465176972 60.21739174615038 H 0.0 **** 0.06
27273 H 32.99059593223712 26.83113916362835 60.5191363249437 H 0.0 **** 0.06
27274 H 32.70523944772342 25.726973192348225 61.88660854342842 H 0.0 **** 0.06
27275 H 31.332254558581887 26.32618750860142 60.92520869202468 H 0.0 **** 0.06
27276 C 98.38357837634035 80.17579330587492 9.60156850614024 C 0.0 **** -0.24
27277 H 99.44385387929336 80.11744438718466 9.8487327297114 H 0.0 **** 0.06
27278 H 98.25426595062281 80.76283229177238 8.692886308519405 H 0.0 **** 0.06
27279 H 97.84496779986384 80.65119214885237 10.422022957790062 H 0.0 **** 0.06
27280 H 97.99238477122884 79.17105288024896 9.444126246293138 H 0.0 **** 0.06
27281 C 7.961349662637726 0.8872653628513234 28.520116171219513 C 0.0 **** -0.24
27282 H 8.866288183673042 0.3092380490402036 28.33150125702508 H 0.0 **** 0.06
27283 H 8.232528774716961 1.9102013138578258 28.782529637042273 H 0.0 **** 0.06
27284 H 7.406073678219009 0.4358195250736685 29.341822360820288 H 0.0 **** 0.06
27285 H 7.341664157095542 0.8941920184954029 27.623026546414337 H 0.0 **** 0.06
27286 C 83.54312744965863 0.4210221206214726 103.95471306757811 C 0.0 **** -0.24
27287 H 83.56045357847267 -0.6418912696233718 103.71706897024372 H 0.0 **** 0.06
27288 H 83.49396511756042 0.5500431020747811 105.03626590970921 H 0.0 **** 0.06
27289 H 82.6709007810935 0.8827083607455961 103.4933333396295 H 0.0 **** 0.06
27290 H 84.4485355909841 0.8930734083760967 103.57259192452413 H 0.0 **** 0.06
27291 C 74.77798977844722 63.517500805327145 44.73225808383321 C 0.0 **** -0.24
27292 H 73.72537485468013 63.34875747775875 44.957256584203115 H 0.0 **** 0.06
27293 H 74.92234706382146 63.52538453672811 43.65147007088689 H 0.0 **** 0.06
27294 H 75.37542511877149 62.719365666138145 45.17369574919336 H 0.0 **** 0.06
27295 H 75.0890880749161 64.476621612172 45.1479912456247 H 0.0 **** 0.06
27296 C 42.82359320119008 17.028551503524113 14.620052878527417 C 0.0 **** -0.24
27297 H 42.562066113963056 17.619806712759726 15.498149552946344 H 0.0 **** 0.06
27298 H 42.26300808828009 16.09384028668893 14.632058492368799 H 0.0 **** 0.06
27299 H 43.892111638331414 16.811984475770544 14.633318258572757 H 0.0 **** 0.06
27300 H 42.57683064125584 17.59019728980286 13.719183241310361 H 0.0 **** 0.06
27301 C 108.9141111435411 40.44049230324058 11.019004996799907 C 0.0 **** -0.24
27302 H 108.22857417825094 41.16417675735281 11.45984934521789 H 0.0 **** 0.06
27303 H 108.3956954277478 39.49142732645971 10.873912615491264 H 0.0 **** 0.06
27304 H 109.76426508073877 40.29235995370377 11.685089050665766 H 0.0 **** 0.06
27305 H 109.26577534754392 40.81298055282909 10.056541134078003 H 0.0 **** 0.06
27306 C 63.06788411308109 50.54090516886785 89.50071720259085 C 0.0 **** -0.24
27307 H 62.17971659686782 50.959240610986114 89.02829183145096 H 0.0 **** 0.06
27308 H 63.29010272827736 51.09549382923137 90.41227145616381 H 0.0 **** 0.06
27309 H 63.91245898759563 50.613639401932346 88.81609260718149 H 0.0 **** 0.06
27310 H 62.88850772228922 49.493361469879204 89.74715234428045 H 0.0 **** 0.06
27311 C 21.347454046044504 84.40183638901584 3.599384135549286 C 0.0 **** -0.24
27312 H 21.113278348245075 85.25606913022561 4.23454082760496 H 0.0 **** 0.06
27313 H 22.286534274390874 83.95440538931969 3.9248556141581474 H 0.0 **** 0.06
27314 H 21.441251066232866 84.73359031384196 2.5658570372590503 H 0.0 **** 0.06
27315 H 20.54846423614663 83.66420396856918 3.674033697877036 H 0.0 **** 0.06
27316 C 32.703399353980444 75.32163529658138 22.68846544133021 C 0.0 **** -0.24
27317 H 33.37874165864463 75.61012414059547 21.88358795121445 H 0.0 **** 0.06
27318 H 31.715386996977315 75.11705839783576 22.277165437778194 H 0.0 **** 0.06
27319 H 32.6354594596412 76.13166632831246 23.4135383219201 H 0.0 **** 0.06
27320 H 33.085681008036374 74.42546899607277 23.179057586469867 H 0.0 **** 0.06
27321 C 104.51871131390138 94.66202894857355 106.34766570849675 C 0.0 **** -0.24
27322 H 104.87251841204379 94.27276082498014 105.39325976567935 H 0.0 **** 0.06
27323 H 103.8662754291561 93.92797759841537 106.82022245710755 H 0.0 **** 0.06
27324 H 103.96594546931937 95.58685383724958 106.18003292004896 H 0.0 **** 0.06
27325 H 105.37195574328395 94.86102454369785 106.99599552653997 H 0.0 **** 0.06
27326 C 4.467505244463609 71.37216235874132 86.49425627580911 C 0.0 **** -0.24
27327 H 4.558532989807276 70.29164676610583 86.60598754255304 H 0.0 **** 0.06
27328 H 4.570876536663491 71.63882868726063 85.4417562138728 H 0.0 **** 0.06
27329 H 5.250893967351317 71.86409934293141 87.07246391236197 H 0.0 **** 0.06
27330 H 3.491371592605219 71.6936375636048 86.85708769147237 H 0.0 **** 0.06
27331 C 79.83118224598809 109.59821886844428 61.37818969137484 C 0.0 **** -0.24
27332 H 80.5534031904499 109.18697458675142 62.0843079337393 H 0.0 **** 0.06
27333 H 79.08829064534615 110.18538294087632 61.91888399459441 H 0.0 **** 0.06
27334 H 79.3363362790144 108.784045421655 60.848849608458664 H 0.0 **** 0.06
27335 H 80.34891158651715 110.2364650459308 60.66176800135857 H 0.0 **** 0.06
27336 C 34.16410020750453 28.4411002185943 41.75282598776229 C 0.0 **** -0.24
27337 H 34.277831888314324 28.40125658521083 42.8361479405103 H 0.0 **** 0.06
27338 H 33.178652836285295 28.06572716433209 41.477819825830665 H 0.0 **** 0.06
27339 H 34.931798628350776 27.825028141265705 41.28441142333455 H 0.0 **** 0.06
27340 H 34.269649000033326 29.47215696575529 41.41418998994038 H 0.0 **** 0.06
27341 C 88.80357190887145 5.780860816305623 84.08560655177891 C 0.0 **** -0.24
27342 H 88.29263453726486 6.20477710137096 84.95027056971546 H 0.0 **** 0.06
27343 H 89.14547130793892 6.586199850229651 83.43504315422678 H 0.0 **** 0.06
27344 H 88.11664240751884 5.136722835540834 83.5371241352179 H 0.0 **** 0.06
27345 H 89.65957762072367 5.195596909179196 84.4209768341528 H 0.0 **** 0.06
27346 C 46.72687027587314 18.579377191054846 98.62538302265892 C 0.0 **** -0.24
27347 H 46.77719004796264 18.20263329270989 99.64785547161436 H 0.0 **** 0.06
27348 H 46.69008279501278 17.739957092973782 97.9302797962852 H 0.0 **** 0.06
27349 H 47.60980364793839 19.18408476597037 98.41806134331152 H 0.0 **** 0.06
27350 H 45.83213679304131 19.189690963657824 98.50792284281818 H 0.0 **** 0.06
27351 C 33.79013730538651 61.848339101275485 33.55927636016699 C 0.0 **** -0.24
27352 H 34.87504954451748 61.93993036094403 33.60007204125543 H 0.0 **** 0.06
27353 H 33.39876595855432 62.50706038526637 32.78365104415846 H 0.0 **** 0.06
27354 H 33.365784821902224 62.128915015508 34.52389599931206 H 0.0 **** 0.06
27355 H 33.52141255211899 60.81715502664703 33.330321630642715 H 0.0 **** 0.06
27356 C 23.80506982200245 84.70541675986175 96.51454381821236 C 0.0 **** -0.24
27357 H 23.770507364370246 83.9072109090483 95.77269090297881 H 0.0 **** 0.06
27358 H 23.930418376325292 85.66404175634418 96.01037940385325 H 0.0 **** 0.06
27359 H 24.64279919381829 84.5373595874362 97.19068441380044 H 0.0 **** 0.06
27360 H 22.874723042403843 84.71206413210278 97.08360498428748 H 0.0 **** 0.06
27361 C 88.07934973320314 58.8920295445732 11.311361838155449 C 0.0 **** -0.24
27362 H 88.04973353071247 59.978159722801095 11.402130853402458 H 0.0 **** 0.06
27363 H 87.16594588285801 58.46832250739058 11.728000269442642 H 0.0 **** 0.06
27364 H 88.94132805753034 58.506321077418676 11.855848951953053 H 0.0 **** 0.06
27365 H 88.16104360227712 58.61820062727542 10.259964839364928 H 0.0 **** 0.06
27366 C 74.85563965519981 108.58021251994234 36.5701695937195 C 0.0 **** -0.24
27367 H 74.42951518107839 107.93936511626362 35.79844918639509 H 0.0 **** 0.06
27368 H 74.74753250181482 108.1003715097168 37.54296315841884 H 0.0 **** 0.06
27369 H 74.33253990547814 109.53719875051746 36.576489300874954 H 0.0 **** 0.06
27370 H 75.91284261001442 108.74487748327289 36.3617487887995 H 0.0 **** 0.06
27371 C 36.82528136651041 1.3718394236212816 18.566730026805203 C 0.0 **** -0.24
27372 H 35.85276470562211 1.0403003657543195 18.202278271412986 H 0.0 **** 0.06
27373 H 37.474031197891975 0.5063833742448764 18.708315467787386 H 0.0 **** 0.06
27374 H 36.699196017928756 1.890042144943891 19.517893703263972 H 0.0 **** 0.06
27375 H 37.274641289666334 2.0488175019916355 17.840546043464613 H 0.0 **** 0.06
27376 C 68.81122795728527 72.53071259767745 44.18384565275823 C 0.0 **** -0.24
27377 H 69.52866882669724 73.21137364490255 43.724238148074775 H 0.0 **** 0.06
27378 H 68.96962768179296 71.52314673137468 43.79925051479517 H 0.0 **** 0.06
27379 H 67.79929140823366 72.85632740328168 43.94654374440786 H 0.0 **** 0.06
27380 H 68.95008917732912 72.53407843995194 45.265138450800144 H 0.0 **** 0.06
27381 C 51.48655283518838 73.39855590820048 93.9777155708324 C 0.0 **** -0.24
27382 H 51.52407331411018 72.42898020041207 93.48100335125281 H 0.0 **** 0.06
27383 H 50.5448102208199 73.4943652364451 94.51801759600579 H 0.0 **** 0.06
27384 H 51.560749675301054 74.19072505483012 93.23231114151923 H 0.0 **** 0.06
27385 H 52.31848466320855 73.47991590584866 94.67722600305285 H 0.0 **** 0.06
27386 C 107.10548326746343 51.66685387907151 37.59331958842017 C 0.0 **** -0.24
27387 H 106.86516588279186 51.22451990554048 38.560356866460836 H 0.0 **** 0.06
27388 H 106.61152342594058 52.63375499903953 37.502447615857136 H 0.0 **** 0.06
27389 H 106.76225240147487 51.00583816486937 36.79750889508506 H 0.0 **** 0.06
27390 H 108.18463760346502 51.800584284855084 37.514668537498494 H 0.0 **** 0.06
27391 C 11.908062748181123 50.86566275125366 32.738743549006486 C 0.0 **** -0.24
27392 H 11.372942470316502 51.45798928063873 31.99712074066069 H 0.0 **** 0.06
27393 H 12.175465784863036 51.498875107930495 33.58544931466375 H 0.0 **** 0.06
27394 H 12.813908986285696 50.45538956740279 32.2909272516531 H 0.0 **** 0.06
27395 H 11.26993375125926 50.05039704904256 33.08147688904836 H 0.0 **** 0.06
27396 C 14.806757814418233 25.842804866400087 59.83703721949968 C 0.0 **** -0.24
27397 H 14.070126107273936 25.072094045228596 60.06591156537172 H 0.0 **** 0.06
27398 H 15.808108925905316 25.459398924897584 60.03581537244361 H 0.0 **** 0.06
27399 H 14.622135215187868 26.71745483228804 60.4608150653965 H 0.0 **** 0.06
27400 H 14.725723329622426 26.122176963396612 58.786661335716985 H 0.0 **** 0.06
27401 C 1.6758448597582287 35.02512315867937 49.591489165324674 C 0.0 **** -0.24
27402 H 2.3355984108603707 35.87153416633486 49.39849548045305 H 0.0 **** 0.06
27403 H 1.4056778166092272 34.553121129082236 48.64656814036948 H 0.0 **** 0.06
27404 H 0.7742721631283587 35.375840503553746 50.09431807090431 H 0.0 **** 0.06
27405 H 2.1889660252042233 34.302943846801874 50.226409292058094 H 0.0 **** 0.06
27406 C 98.49606677185258 80.62148587218547 102.36372614172143 C 0.0 **** -0.24
27407 H 98.11196085907739 81.29667957131807 101.59949780649704 H 0.0 **** 0.06
27408 H 98.33237786204978 81.05792674729281 103.34959592102243 H 0.0 **** 0.06
27409 H 99.56431496715294 80.46684193790207 102.20851672674479 H 0.0 **** 0.06
27410 H 97.97740098769955 79.6652598641989 102.29878413353953 H 0.0 **** 0.06
27411 C 4.623565369591091 107.95061247415332 78.30149879985444 C 0.0 **** -0.24
27412 H 5.568172002178116 107.47503702678014 78.56791620305009 H 0.0 **** 0.06
27413 H 3.828994161015302 107.20393438179165 78.3035778714958 H 0.0 **** 0.06
27414 H 4.707728833024504 108.39074199182534 77.3078995953577 H 0.0 **** 0.06
27415 H 4.393355075158993 108.73048330996325 79.02647776374647 H 0.0 **** 0.06
27416 C 23.19286702391929 80.91226121986782 44.80496266951752 C 0.0 **** -0.24
27417 H 24.218990152160302 80.84332610890559 45.168664788733196 H 0.0 **** 0.06
27418 H 23.134985780641614 81.67364592694328 44.026525775260495 H 0.0 **** 0.06
27419 H 22.53330389471469 81.18434921262384 45.62933727683691 H 0.0 **** 0.06
27420 H 22.8869363474943 79.9497141664354 44.39689970828667 H 0.0 **** 0.06
27421 C 34.19554093961432 59.44491911546493 37.56099124654161 C 0.0 **** -0.24
27422 H 34.56567168492002 59.51960889148975 38.58342585296223 H 0.0 **** 0.06
27423 H 33.1066596595753 59.40090896599756 37.56996382229203 H 0.0 **** 0.06
27424 H 34.5920924277672 58.54228596926984 37.096112569434034 H 0.0 **** 0.06
27425 H 34.51954162917788 60.31780072719789 36.99351776774528 H 0.0 **** 0.06
27426 C 60.41963296204261 0.07105218033851202 79.34236650933144 C 0.0 **** -0.24
27427 H 61.459332720955956 0.021760879724553206 79.66577899717691 H 0.0 **** 0.06
27428 H 59.786610701398615 -0.42688603795616586 80.07672419031059 H 0.0 **** 0.06
27429 H 60.31564060416662 -0.4229748756849574 78.37628125146028 H 0.0 **** 0.06
27430 H 60.11803154089506 1.115096552442651 79.25044882071037 H 0.0 **** 0.06
27431 C 35.08645034178038 72.29066151524864 83.43581394161822 C 0.0 **** -0.24
27432 H 35.18060115765971 73.34173241209254 83.1652305090993 H 0.0 **** 0.06
27433 H 34.09671604499713 72.11007243511239 83.85372350890651 H 0.0 **** 0.06
27434 H 35.845896763343916 72.03730104872886 84.17631480524997 H 0.0 **** 0.06
27435 H 35.22476932414777 71.67391843979584 82.54829737494947 H 0.0 **** 0.06
27436 C 104.87796515034375 9.956821538398202 0.08586656243107882 C 0.0 **** -0.24
27437 H 105.80405236731859 9.385816918385743 0.017338702735464118 H 0.0 **** 0.06
27438 H 104.47694872480422 10.11988926732191 -0.9136976065158526 H 0.0 **** 0.06
27439 H 105.078595482976 10.917693907390444 0.559005641464851 H 0.0 **** 0.06
27440 H 104.15370926277367 9.402347213032982 0.6827019669072083 H 0.0 **** 0.06
27441 C 31.827644333981596 50.09332713270163 7.770528791917741 C 0.0 **** -0.24
27442 H 31.433025250239695 51.03178166640765 8.160623337687667 H 0.0 **** 0.06
27443 H 32.23353597229297 49.50128592694131 8.591352218129288 H 0.0 **** 0.06
27444 H 32.617556305428835 50.30358114626057 7.048921399188529 H 0.0 **** 0.06
27445 H 31.027133382791988 49.53768282523879 7.2819251761684995 H 0.0 **** 0.06
27446 C 70.97746896485262 3.7175096495193714 97.58267435631817 C 0.0 **** -0.24
27447 H 71.17602700582802 3.764229998013576 96.51191538332935 H 0.0 **** 0.06
27448 H 70.52678853760884 2.755140155930917 97.82692835226177 H 0.0 **** 0.06
27449 H 70.29569901804689 4.520894728812209 97.86109849366595 H 0.0 **** 0.06
27450 H 71.91360838073595 3.8291667663331737 98.12999196010699 H 0.0 **** 0.06
27451 C 85.62777165350656 23.035337417523127 36.989572050979234 C 0.0 **** -0.24
27452 H 85.51911385091881 23.00639121528181 35.90551926241555 H 0.0 **** 0.06
27453 H 85.61697725321852 24.071443706879155 37.32799206265457 H 0.0 **** 0.06
27454 H 86.57122277006374 22.568702888546245 37.27276821560278 H 0.0 **** 0.06
27455 H 84.8014630603272 22.493376462108433 37.45074159529287 H 0.0 **** 0.06
27456 C 10.14454908973643 43.32450395551717 107.2589512949131 C 0.0 **** -0.24
27457 H 10.65510923227339 43.51146921838864 108.20333477857288 H 0.0 **** 0.06
27458 H 9.13903153243298 43.74561690023177 107.29979600760056 H 0.0 **** 0.06
27459 H 10.081756558466097 42.25054530459096 107.08549598805556 H 0.0 **** 0.06
27460 H 10.700761990086846 43.79176270825644 106.44586005378753 H 0.0 **** 0.06
27461 C 37.07279377779377 45.84249820400305 3.1260338159030425 C 0.0 **** -0.24
27462 H 36.73590658792034 46.21185730280109 2.157901750535075 H 0.0 **** 0.06
27463 H 36.61022193514172 46.42950634333397 3.9194161911405843 H 0.0 **** 0.06
27464 H 38.15739805004581 45.93345489847309 3.192097121411223 H 0.0 **** 0.06
27465 H 36.78919722928853 44.795550178535734 3.234041674203098 H 0.0 **** 0.06
27466 C 90.39939076971643 82.13066217416647 105.31281086138289 C 0.0 **** -0.24
27467 H 90.0292039705339 82.95366933416454 104.70208524780004 H 0.0 **** 0.06
27468 H 91.44782671029961 81.94527115592565 105.07613558486011 H 0.0 **** 0.06
27469 H 89.81594676813125 81.23312305383199 105.10546204625368 H 0.0 **** 0.06
27470 H 90.30504058425333 82.38981825339648 106.36801326019493 H 0.0 **** 0.06
27471 C 78.62178754920598 107.43879245287411 70.78479865574104 C 0.0 **** -0.24
27472 H 79.10659745196796 108.29281853119325 71.25678979252612 H 0.0 **** 0.06
27473 H 78.22566739771787 106.77494614718638 71.55399617853996 H 0.0 **** 0.06
27474 H 79.34820018223382 106.89886372743979 70.17652357357764 H 0.0 **** 0.06
27475 H 77.80641896271578 107.78750053566759 70.15096539081321 H 0.0 **** 0.06
27476 C 16.88323153671256 56.81045117743366 50.454600053155005 C 0.0 **** -0.24
27477 H 15.890949097265324 56.45585321051806 50.17701101926792 H 0.0 **** 0.06
27478 H 16.879371223823313 57.89952829641834 50.5027561129342 H 0.0 **** 0.06
27479 H 17.60769918103756 56.481472774477595 49.71072397256555 H 0.0 **** 0.06
27480 H 17.153790637002466 56.404612147330226 51.4304860225011 H 0.0 **** 0.06
27481 C 95.08326447103124 49.847716403938065 22.890207929325697 C 0.0 **** -0.24
27482 H 94.33577492563091 49.406278711807495 23.550302670839983 H 0.0 **** 0.06
27483 H 95.08140807442607 50.93183979777967 23.013398850165913 H 0.0 **** 0.06
27484 H 94.84654946536322 49.59893512004631 21.856191153169163 H 0.0 **** 0.06
27485 H 96.06830610648623 49.454962426613335 23.142846341359956 H 0.0 **** 0.06
27486 C 35.397579919319526 102.73212223848662 62.636946725396626 C 0.0 **** -0.24
27487 H 34.88745265557327 102.78580486488693 61.675424915650666 H 0.0 **** 0.06
27488 H 36.389663279892716 103.17642908031183 62.54706358293356 H 0.0 **** 0.06
27489 H 35.49324671571688 101.68904063962196 62.94001528374645 H 0.0 **** 0.06
27490 H 34.82198937538979 103.27644375037923 63.384757809036756 H 0.0 **** 0.06
27491 C 103.85479268857593 24.365880513000462 78.1129523655389 C 0.0 **** -0.24
27492 H 104.11059889068892 23.501740175433397 77.50016732460679 H 0.0 **** 0.06
27493 H 103.58327551284741 24.032041728292185 79.11549865363504 H 0.0 **** 0.06
27494 H 103.01203325290098 24.892782420400877 77.66488227803502 H 0.0 **** 0.06
27495 H 104.71197885763921 25.03609388898063 78.17287513187927 H 0.0 **** 0.06
27496 C 105.72154603259254 77.61787966855857 6.6624759091546935 C 0.0 **** -0.24
27497 H 106.151899485182 78.58652707957705 6.405248307856326 H 0.0 **** 0.06
27498 H 104.82785205797899 77.4462230585419 6.060684366694858 H 0.0 **** 0.06
27499 H 105.45608616855193 77.6081440253144 7.719040664024021 H 0.0 **** 0.06
27500 H 106.4511432341542 76.83301785851475 6.462776808597482 H 0.0 **** 0.06
27501 C 70.8585034269336 66.54272853514234 78.04368101915321 C 0.0 **** -0.24
27502 H 70.17364150593241 66.60735366290197 77.1975795744242 H 0.0 **** 0.06
27503 H 71.17657631172459 67.54633470276542 78.32973742741513 H 0.0 **** 0.06
27504 H 71.72897743487482 65.95094897648357 77.76143503878404 H 0.0 **** 0.06
27505 H 70.35328391982304 66.0682872708663 78.88435845375636 H 0.0 **** 0.06
27506 C 54.09056140865991 49.047400495088766 102.62916861055521 C 0.0 **** -0.24
27507 H 53.02800494631339 48.83954618868404 102.50631025150724 H 0.0 **** 0.06
27508 H 54.66189349725616 48.134181331232526 102.46299020702367 H 0.0 **** 0.06
27509 H 54.2742228568373 49.413144932744956 103.63948952460211 H 0.0 **** 0.06
27510 H 54.398028092571394 49.80517615243264 101.90795560827624 H 0.0 **** 0.06
27511 C 33.593213432456565 69.46947100446312 108.85320943701953 C 0.0 **** -0.24
27512 H 34.541857422745636 68.95522629091079 108.70131215242165 H 0.0 **** 0.06
27513 H 33.51575331086491 70.30200127812122 108.15290863953491 H 0.0 **** 0.06
27514 H 33.54492105574559 69.84819452994753 109.87454936103278 H 0.0 **** 0.06
27515 H 32.77239135975577 68.77376617979797 108.6839383490503 H 0.0 **** 0.06
27516 C 38.10079622656542 18.80559977388488 52.70713083656062 C 0.0 **** -0.24
27517 H 37.876300031164135 18.91657452953534 51.645366728096974 H 0.0 **** 0.06
27518 H 39.141531964506015 19.074704323157764 52.888535759793626 H 0.0 **** 0.06
27519 H 37.9353698907525 17.770083605908287 53.00562085143852 H 0.0 **** 0.06
27520 H 37.44913181264491 19.459941082497995 53.28552496728324 H 0.0 **** 0.06
27521 C 86.14414956088046 35.01486790421116 73.24315619266616 C 0.0 **** -0.24
27522 H 85.15407039562905 35.22821503559847 72.84029627932483 H 0.0 **** 0.06
27523 H 86.83982519517656 34.83732210984543 72.42324537546543 H 0.0 **** 0.06
27524 H 86.09478010479262 34.12847345108248 73.87701065770507 H 0.0 **** 0.06
27525 H 86.48610505731136 35.864555133218495 73.83300859072804 H 0.0 **** 0.06
27526 C 47.32714366783603 61.0403359468005 79.03635557145265 C 0.0 **** -0.24
27527 H 47.82098479316884 60.16791940017151 79.4651564727499 H 0.0 **** 0.06
27528 H 46.71716509711273 61.523550619799664 79.79933759419802 H 0.0 **** 0.06
27529 H 46.69237459381565 60.72790735778045 78.20750369395297 H 0.0 **** 0.06
27530 H 48.079471301406485 61.74067985179272 78.67494948432463 H 0.0 **** 0.06
27531 C 54.29213027572315 44.63318745097095 40.618534047717 C 0.0 **** -0.24
27532 H 53.38419269670292 44.54825349880841 40.02245655377823 H 0.0 **** 0.06
27533 H 55.07632413748561 44.0195906814177 40.1753999355776 H 0.0 **** 0.06
27534 H 54.09326870676315 44.29270013775954 41.63414434293789 H 0.0 **** 0.06
27535 H 54.615376971666464 45.67393407644982 40.64087012499826 H 0.0 **** 0.06
27536 C 14.801485174384922 80.02683766012385 93.24044519871161 C 0.0 **** -0.24
27537 H 15.028222572976688 79.01940820918257 93.59001770580417 H 0.0 **** 0.06
27538 H 14.596220095737294 80.6699565560562 94.09637522439682 H 0.0 **** 0.06
27539 H 13.927776060978374 79.99692079066864 92.59015896830101 H 0.0 **** 0.06
27540 H 15.654451568683712 80.41904773866544 92.68641139172605 H 0.0 **** 0.06
27541 C 22.057386151621756 22.542689705736763 62.52954584424619 C 0.0 **** -0.24
27542 H 21.954469097336187 23.560334476082858 62.151715053295675 H 0.0 **** 0.06
27543 H 23.021615375594198 22.435063001250683 63.025363666230675 H 0.0 **** 0.06
27544 H 21.99460515786492 21.8395836467665 61.69868345719168 H 0.0 **** 0.06
27545 H 21.257658914209994 22.33826399243341 63.240875795271634 H 0.0 **** 0.06
27546 C 18.758646077047246 35.1981923165263 80.0907698702992 C 0.0 **** -0.24
27547 H 18.937643127832217 36.1027866384255 80.67119987356523 H 0.0 **** 0.06
27548 H 19.713099669620647 34.76245676290165 79.79331266165696 H 0.0 **** 0.06
27549 H 18.179194958083784 35.44675163186707 79.20116064552542 H 0.0 **** 0.06
27550 H 18.204675423822323 34.48149657588104 80.69583228147587 H 0.0 **** 0.06
27551 C 65.76585868992217 54.27703249490305 89.43231210460182 C 0.0 **** -0.24
27552 H 64.75432147082984 54.66312292864473 89.55773734073364 H 0.0 **** 0.06
27553 H 66.48431842375545 55.075807102258146 89.61751367523154 H 0.0 **** 0.06
27554 H 65.88879646158283 53.90555206519308 88.41512114788108 H 0.0 **** 0.06
27555 H 65.93432502904457 53.464973374054914 90.14007758298119 H 0.0 **** 0.06
27556 C 104.46053949335551 9.040835043004734 27.787091576657808 C 0.0 **** -0.24
27557 H 104.90270138458719 8.46413787169979 28.599742865357925 H 0.0 **** 0.06
27558 H 103.93015336519079 8.368716639386562 27.11255524154244 H 0.0 **** 0.06
27559 H 105.2490055058185 9.558329425281855 27.2398130196611 H 0.0 **** 0.06
27560 H 103.76399192353752 9.770998314041194 28.19767394854847 H 0.0 **** 0.06
27561 C 24.057856095629237 82.49592447671608 35.27751218090259 C 0.0 **** -0.24
27562 H 24.99450624079921 82.87189716979486 34.86345179563361 H 0.0 **** 0.06
27563 H 24.24611433605676 82.05183157928374 36.254420130766306 H 0.0 **** 0.06
27564 H 23.641871442097127 81.74219405326852 34.60847323361017 H 0.0 **** 0.06
27565 H 23.35183074768747 83.31968102265586 35.38147473255913 H 0.0 **** 0.06
27566 C 0.5893660948660937 106.9965524158051 87.64984284461912 C 0.0 **** -0.24
27567 H 0.5694473637698962 106.93669151873586 86.56096963991934 H 0.0 **** 0.06
27568 H 0.44554934214428954 106.00024319194871 88.06986619671403 H 0.0 **** 0.06
27569 H -0.20960509325486498 107.65476864444621 87.99178044296781 H 0.0 **** 0.06
27570 H 1.5517565614790954 107.39267039402775 87.97401101819833 H 0.0 **** 0.06
27571 C 42.89161926421923 43.26096319750843 102.42429094127084 C 0.0 **** -0.24
27572 H 42.950358566715636 44.34416018460763 102.52525523297308 H 0.0 **** 0.06
27573 H 42.180167424584226 43.007677584089265 101.6373572626531 H 0.0 **** 0.06
27574 H 42.56074183349648 42.8258051923288 103.36746352106354 H 0.0 **** 0.06
27575 H 43.87435632245095 42.8665901923884 102.16744540522564 H 0.0 **** 0.06
27576 C 65.96045367794619 78.46924654793298 38.6558182870412 C 0.0 **** -0.24
27577 H 66.51241821428533 77.70688553943108 38.10597220767022 H 0.0 **** 0.06
27578 H 64.89624238830356 78.23230739758745 38.63465028141347 H 0.0 **** 0.06
27579 H 66.12574150836059 79.44199239746263 38.19270889950508 H 0.0 **** 0.06
27580 H 66.30698278767633 78.49389602658704 39.688462848466315 H 0.0 **** 0.06
27581 C 44.515919307142035 48.234429601535226 91.13812610439737 C 0.0 **** -0.24
27582 H 44.89513538049395 47.738984487675 92.03126333675863 H 0.0 **** 0.06
27583 H 45.004879842813864 47.81923317678769 90.25718719726763 H 0.0 **** 0.06
27584 H 44.723337375815014 49.302395321911376 91.19995484537031 H 0.0 **** 0.06
27585 H 43.43979266613755 48.07636787717422 91.06518215640267 H 0.0 **** 0.06
27586 C 57.305788982468755 22.700906343591473 45.0858840115946 C 0.0 **** -0.24
27587 H 57.77537431277301 23.242796861425127 45.906138296318204 H 0.0 **** 0.06
27588 H 56.40951152906439 23.232893298682527 44.76476949054887 H 0.0 **** 0.06
27589 H 57.033545847700196 21.69935861815573 45.420109583813314 H 0.0 **** 0.06
27590 H 58.00391932080464 22.628651787141933 44.25135826631026 H 0.0 **** 0.06
27591 C 96.52887552217128 52.85112121639463 61.801429436343085 C 0.0 **** -0.24
27592 H 96.7869995972133 51.797940376236994 61.69730512764285 H 0.0 **** 0.06
27593 H 97.17644118173733 53.44911307018555 61.15998782826577 H 0.0 **** 0.06
27594 H 96.66176448066787 53.15608089208527 62.83924395023061 H 0.0 **** 0.06
27595 H 95.48895737601353 53.00093181729403 61.50935590132019 H 0.0 **** 0.06
27596 C 45.44499142119705 85.35602708285376 49.35168151371134 C 0.0 **** -0.24
27597 H 46.25148543090679 84.87892409878077 48.7932765476824 H 0.0 **** 0.06
27598 H 44.57603399192667 85.4745094859802 48.70389775224383 H 0.0 **** 0.06
27599 H 45.7748616018713 86.33521462515438 49.69911682524342 H 0.0 **** 0.06
27600 H 45.18037117220636 84.73610142497796 50.207464252593226 H 0.0 **** 0.06
27601 C 67.60686104858635 76.49056884133019 0.5399086719809816 C 0.0 **** -0.24
27602 H 68.0448821480231 75.9129834820218 1.354147303956438 H 0.0 **** 0.06
27603 H 67.48015846751467 77.52597265428928 0.8579296152177562 H 0.0 **** 0.06
27604 H 66.6355203654094 76.06876630349696 0.2780483023650504 H 0.0 **** 0.06
27605 H 68.26503641611873 76.45353061260138 -0.32740104987689733 H 0.0 **** 0.06
27606 C 107.3092182275541 52.37175033469441 63.98056390374654 C 0.0 **** -0.24
27607 H 106.66175939105518 51.85455868025247 63.27181165055907 H 0.0 **** 0.06
27608 H 107.09615485475967 53.441002753995235 63.952775524480785 H 0.0 **** 0.06
27609 H 108.35157858444852 52.20035308127217 63.712249311444396 H 0.0 **** 0.06
27610 H 107.12455413413771 51.99003141116668 64.98447011267905 H 0.0 **** 0.06
27611 C 70.48615110382147 55.616517306118055 12.68992562170638 C 0.0 **** -0.24
27612 H 69.88098851192686 54.800434387728046 13.086248507238537 H 0.0 **** 0.06
27613 H 70.82061321967251 55.36377274242108 11.683611974158424 H 0.0 **** 0.06
27614 H 71.35190970076548 55.77192546992694 13.333201758069777 H 0.0 **** 0.06
27615 H 69.88972003487714 56.52822082321461 12.657054116547314 H 0.0 **** 0.06
27616 C 19.763717594369695 79.91810603945652 5.098084392919816 C 0.0 **** -0.24
27617 H 18.915993191177336 79.28035395387673 5.350907523654939 H 0.0 **** 0.06
27618 H 20.601680700201683 79.29879120735569 4.777511694419729 H 0.0 **** 0.06
27619 H 20.05332270561118 80.49830387015734 5.974116476647055 H 0.0 **** 0.06
27620 H 19.481033666357007 80.59420199186496 4.291330457889899 H 0.0 **** 0.06
27621 C 54.902990366213345 96.25696620911822 29.060328291777694 C 0.0 **** -0.24
27622 H 54.75900806925398 95.3186250622611 29.5963785473665 H 0.0 **** 0.06
27623 H 55.94920370525722 96.55686934397954 29.12737802480484 H 0.0 **** 0.06
27624 H 54.2741579892745 97.02848160629937 29.50307836480266 H 0.0 **** 0.06
27625 H 54.63011046957524 96.1223406479526 28.012950395688165 H 0.0 **** 0.06
27626 C 40.168590308327964 62.956371912819236 27.767479880031374 C 0.0 **** -0.24
27627 H 40.5576227769553 62.683772947674356 26.787414927681397 H 0.0 **** 0.06
27628 H 40.80253552235885 63.725272797493744 28.20959274016583 H 0.0 **** 0.06
27629 H 40.16008647435436 62.07815856044931 28.412451830647043 H 0.0 **** 0.06
27630 H 39.15286813617277 63.339292419780634 27.661653192246447 H 0.0 **** 0.06
27631 C 29.45747985371318 11.793109482945297 66.82823975609656 C 0.0 **** -0.24
27632 H 30.16036909174241 11.202713369057662 66.24001867777538 H 0.0 **** 0.06
27633 H 29.690739732416112 11.684582311219689 67.88813626895464 H 0.0 **** 0.06
27634 H 28.442079875762204 11.441328095612729 66.64117108731199 H 0.0 **** 0.06
27635 H 29.53718926997813 12.842484668904603 66.54348368958976 H 0.0 **** 0.06
27636 C 89.20496388641348 94.62916896249666 32.18973542844259 C 0.0 **** -0.24
27637 H 88.616496683268 95.525518003574 32.3829931844156 H 0.0 **** 0.06
27638 H 89.41450852075167 94.55402598737243 31.12230510965398 H 0.0 **** 0.06
27639 H 88.64646723703419 93.75103358800192 32.51352179148887 H 0.0 **** 0.06
27640 H 90.1435453292072 94.68555190644446 32.74128389682642 H 0.0 **** 0.06
27641 C 108.07153860818023 66.2217775499311 77.5127545836459 C 0.0 **** -0.24
27642 H 108.24409849319964 65.78228140134574 78.49553997191353 H 0.0 **** 0.06
27643 H 108.80431135182475 65.82971723148697 76.80685606496009 H 0.0 **** 0.06
27644 H 108.17236493817485 67.30553269200506 77.57762943274057 H 0.0 **** 0.06
27645 H 107.06659196950508 65.96993658956904 77.17309110655279 H 0.0 **** 0.06
27646 C 87.1280076092445 19.187733679585534 67.33053849186416 C 0.0 **** -0.24
27647 H 87.20270235818475 19.265059669417155 66.2452545136407 H 0.0 **** 0.06
27648 H 86.48564552600857 19.983466463441715 67.70792577424734 H 0.0 **** 0.06
27649 H 88.12125913372405 19.283825850032542 67.77020838649992 H 0.0 **** 0.06
27650 H 86.70418342667939 18.2197167481348 67.59749380351258 H 0.0 **** 0.06
27651 C 87.93019131561819 53.04545160989205 57.54329059329072 C 0.0 **** -0.24
27652 H 88.99723308554108 53.18231090493281 57.37107792936834 H 0.0 **** 0.06
27653 H 87.39097020613038 53.9291349050167 57.20308586482509 H 0.0 **** 0.06
27654 H 87.74997194171266 52.89801325867911 58.608669319373575 H 0.0 **** 0.06
27655 H 87.58207301411154 52.171429362373935 56.99313824548155 H 0.0 **** 0.06
27656 C 74.16742465280583 6.574335577654052 59.09736339208248 C 0.0 **** -0.24
27657 H 75.2042646024218 6.898650096811579 59.00939255822253 H 0.0 **** 0.06
27658 H 73.7593325121928 6.389873984192022 58.10341791672689 H 0.0 **** 0.06
27659 H 73.58444915927026 7.351543720345184 59.591415955244614 H 0.0 **** 0.06
27660 H 74.12261303214453 5.657391035730088 59.68497507342306 H 0.0 **** 0.06
27661 C 41.05944440999042 98.4112296280583 75.83568041370177 C 0.0 **** -0.24
27662 H 40.953073396507534 99.08827172576929 76.6827199776464 H 0.0 **** 0.06
27663 H 40.22096271119136 97.71421961653124 75.82103811836498 H 0.0 **** 0.06
27664 H 41.99294926274325 97.85539781965977 75.92871589207408 H 0.0 **** 0.06
27665 H 41.069448729969736 98.98667250274005 74.90998755057603 H 0.0 **** 0.06
27666 C 87.65536139612543 9.354588245582434 55.29908261968356 C 0.0 **** -0.24
27667 H 87.51819511647614 8.330375851674432 54.95163871192099 H 0.0 **** 0.06
27668 H 87.44606222704323 10.045743512365618 54.482434510718576 H 0.0 **** 0.06
27669 H 88.68422055497126 9.489196565035101 55.63503703019455 H 0.0 **** 0.06
27670 H 86.97362711800369 9.551630121666193 56.125960904202714 H 0.0 **** 0.06
27671 C 45.52953221990509 42.94411642700268 48.811841671192276 C 0.0 **** -0.24
27672 H 45.95956390503437 42.08120674207595 48.30471701188958 H 0.0 **** 0.06
27673 H 44.49268878130644 43.06915909001208 48.4989137171286 H 0.0 **** 0.06
27674 H 46.0976179102494 43.83814318437703 48.55444766095848 H 0.0 **** 0.06
27675 H 45.56668827854685 42.787519213610324 49.890819290125734 H 0.0 **** 0.06
27676 C 22.718658259772994 82.71955466544036 69.54276060137113 C 0.0 **** -0.24
27677 H 23.744957753589134 82.41420958205002 69.74786208032643 H 0.0 **** 0.06
27678 H 22.059591794293567 82.31633676188127 70.311664745495 H 0.0 **** 0.06
27679 H 22.415076769945372 82.34039979527743 68.56767667793275 H 0.0 **** 0.06
27680 H 22.656674614294175 83.80807498156142 69.54509366868498 H 0.0 **** 0.06
27681 C 72.7396228890873 26.043259258148964 31.802381837921388 C 0.0 **** -0.24
27682 H 72.78564716312802 25.344410400192146 32.63723324545495 H 0.0 **** 0.06
27683 H 72.5130151111324 25.500341541649817 30.88511246567745 H 0.0 **** 0.06
27684 H 73.70035108583102 26.548153961341086 31.69852345455007 H 0.0 **** 0.06
27685 H 71.95974212692323 26.781982584685778 31.990240194616973 H 0.0 **** 0.06
27686 C 7.819557871851728 5.080917572889973 42.736756592643474 C 0.0 **** -0.24
27687 H 7.341571704713559 6.058691990999279 42.79056402967947 H 0.0 **** 0.06
27688 H 7.714432325437823 4.680508185465413 41.727098760338095 H 0.0 **** 0.06
27689 H 7.3433241524629445 4.404164172800989 43.44701936162912 H 0.0 **** 0.06
27690 H 8.877107329381197 5.179364528361333 42.98013318793551 H 0.0 **** 0.06
27691 C 40.84550685196946 7.174520128349121 44.30764725264882 C 0.0 **** -0.24
27692 H 41.05935792258258 6.562899397460393 45.18327364943909 H 0.0 **** 0.06
27693 H 40.180087770621896 7.991490852662746 44.5891134348677 H 0.0 **** 0.06
27694 H 40.365022546674666 6.561542244195163 43.54536725934207 H 0.0 **** 0.06
27695 H 41.775617855731696 7.583139492493158 43.91333319967504 H 0.0 **** 0.06
27696 C 90.03969821436903 56.46354095033077 44.673134764632024 C 0.0 **** -0.24
27697 H 89.44308242022163 56.82334888240099 43.83452535732007 H 0.0 **** 0.06
27698 H 89.3966966605048 55.92734398209031 45.37107650664029 H 0.0 **** 0.06
27699 H 90.49960695990653 57.31194050792336 45.18069957850697 H 0.0 **** 0.06
27700 H 90.81687157503373 55.79357359792044 44.30560630443539 H 0.0 **** 0.06
27701 C 24.42185810302655 17.38983300773471 48.93771073286865 C 0.0 **** -0.24
27702 H 25.316925406048327 17.869648896942422 49.33357952146429 H 0.0 **** 0.06
27703 H 23.8187877940259 18.12718526079513 48.4081857527172 H 0.0 **** 0.06
27704 H 23.84225964137297 16.967874832533468 49.75899862666722 H 0.0 **** 0.06
27705 H 24.710083445956975 16.594820875715627 48.24932292848138 H 0.0 **** 0.06
27706 C 49.25722189500045 37.39953088374382 85.04998433160179 C 0.0 **** -0.24
27707 H 50.24658261223936 37.83981012378925 84.92809751002314 H 0.0 **** 0.06
27708 H 49.3388073423635 36.4723494099793 85.61853095710467 H 0.0 **** 0.06
27709 H 48.831095812407895 37.187066782465365 84.06919461968991 H 0.0 **** 0.06
27710 H 48.61221056774807 38.097326759443604 85.58253394512788 H 0.0 **** 0.06
27711 C 18.417852234015754 0.8310831334539444 62.4820200623636 C 0.0 **** -0.24
27712 H 17.756499739152417 1.695792171558196 62.52892401707098 H 0.0 **** 0.06
27713 H 19.343097496168525 1.108930237044035 61.977729442113045 H 0.0 **** 0.06
27714 H 17.928573408829976 0.02882778671386177 61.92912542250991 H 0.0 **** 0.06
27715 H 18.64228462813486 0.4907594957954302 63.492601456343465 H 0.0 **** 0.06
27716 C 18.27044743175034 35.31822754678622 0.0073618288619172745 C 0.0 **** -0.24
27717 H 18.830326394787846 34.97373483872042 -0.862095578859055 H 0.0 **** 0.06
27718 H 18.458075700081167 34.65006526660214 0.8478132901058757 H 0.0 **** 0.06
27719 H 17.205756981040125 35.32233846615404 -0.22450272266053162 H 0.0 **** 0.06
27720 H 18.589832952245445 36.32782096575163 0.26801089671209866 H 0.0 **** 0.06
27721 C 17.00843095690908 3.6427428475659553 3.8310162660935276 C 0.0 **** -0.24
27722 H 16.07171660265567 4.1171315270900095 4.123044424974864 H 0.0 **** 0.06
27723 H 17.307880467910024 2.9275101436975604 4.597241457681719 H 0.0 **** 0.06
27724 H 17.781311605710698 4.402509736847833 3.719739206373589 H 0.0 **** 0.06
27725 H 16.870712597945385 3.122392857526478 2.8819085138518403 H 0.0 **** 0.06
27726 C 31.114196307876192 2.182252273574079 80.05093461334997 C 0.0 **** -0.24
27727 H 31.75606699793319 2.024348368953099 79.18401982178568 H 0.0 **** 0.06
27728 H 31.664154401172176 2.736981774762512 80.81252455766321 H 0.0 **** 0.06
27729 H 30.80461168994143 1.2185148511117632 80.45428479574335 H 0.0 **** 0.06
27730 H 30.23401200080864 2.7510293880293375 79.75139991488967 H 0.0 **** 0.06
27731 C 104.41416100248983 94.92741423221754 27.690267068165582 C 0.0 **** -0.24
27732 H 104.62993614341926 94.98701001209174 26.623641885678694 H 0.0 **** 0.06
27733 H 104.08579255756513 93.91726515265249 27.93827099059837 H 0.0 **** 0.06
27734 H 103.6271170914959 95.63748696769802 27.941699751518684 H 0.0 **** 0.06
27735 H 105.31374586682153 95.16695600870905 28.25711507685034 H 0.0 **** 0.06
27736 C 105.34657694356193 39.20694613850246 24.156001925082563 C 0.0 **** -0.24
27737 H 105.16938325469039 39.738730745205245 23.22088887410473 H 0.0 **** 0.06
27738 H 104.5966696685552 38.42449894769763 24.277547793067185 H 0.0 **** 0.06
27739 H 105.28213559903881 39.905786646094285 24.989868886667267 H 0.0 **** 0.06
27740 H 106.34023671598419 38.75777582329053 24.134972898886247 H 0.0 **** 0.06
27741 C 99.05673600828405 71.68140975021475 28.796861996143846 C 0.0 **** -0.24
27742 H 98.13683628266891 71.22846524402564 28.42680032125024 H 0.0 **** 0.06
27743 H 98.87127540632723 72.72522138431847 29.050536019635956 H 0.0 **** 0.06
27744 H 99.82461205877861 71.62610353154223 28.024502292030263 H 0.0 **** 0.06
27745 H 99.39437963937405 71.14566180070022 29.683172156649803 H 0.0 **** 0.06
27746 C 47.4491575687801 78.04323832334049 104.7697920700794 C 0.0 **** -0.24
27747 H 46.65104588710163 78.77129539614705 104.62432897886333 H 0.0 **** 0.06
27748 H 47.01399766756588 77.06853734823314 104.99148274454564 H 0.0 **** 0.06
27749 H 48.079201371542474 78.3576502409509 105.60163929163588 H 0.0 **** 0.06
27750 H 48.04915423452236 77.97610339068937 103.8634948478479 H 0.0 **** 0.06
27751 C 6.562343071904252 21.07544010385959 47.11201293005444 C 0.0 **** -0.24
27752 H 6.4945129319722525 20.813376173838236 46.056142940955404 H 0.0 **** 0.06
27753 H 5.734405548104419 20.61587744905367 47.65345505281878 H 0.0 **** 0.06
27754 H 6.511193341084223 22.158630477144754 47.22072891541951 H 0.0 **** 0.06
27755 H 7.507276208128928 20.713443534358078 47.51678904011638 H 0.0 **** 0.06
27756 C 37.3094714218816 69.35804750443077 99.76714855719774 C 0.0 **** -0.24
27757 H 37.807414282316074 68.83490688960546 100.5839672050869 H 0.0 **** 0.06
27758 H 37.839348799662105 69.16352916551213 98.83506196867023 H 0.0 **** 0.06
27759 H 37.308885269145435 70.42838930902008 99.97007927741751 H 0.0 **** 0.06
27760 H 36.28156859108498 69.00319108547305 99.68245715356215 H 0.0 **** 0.06
27761 C 53.88644586421662 87.83914707539243 106.05996659674395 C 0.0 **** -0.24
27762 H 54.7080292870292 87.70846298268842 105.35644178750613 H 0.0 **** 0.06
27763 H 54.08202191892426 88.7073846912782 106.68993274996586 H 0.0 **** 0.06
27764 H 53.797454847171636 86.9500072780487 106.68443429019055 H 0.0 **** 0.06
27765 H 52.95783531567132 87.9913947872701 105.51059613232951 H 0.0 **** 0.06
27766 C 81.67224191177849 6.299290800155703 84.21202452044673 C 0.0 **** -0.24
27767 H 82.13849132829495 7.1999037244848925 84.61282341822775 H 0.0 **** 0.06
27768 H 81.01480982607035 5.8654609497024275 84.96553336693944 H 0.0 **** 0.06
27769 H 82.44609606975797 5.578526839484111 83.94461284235837 H 0.0 **** 0.06
27770 H 81.09164847834984 6.554186242466118 83.32604800383228 H 0.0 **** 0.06
27771 C 91.56921495572912 65.66109133443257 90.17243215606379 C 0.0 **** -0.24
27772 H 91.15974000391516 64.9321908993615 90.87056910296559 H 0.0 **** 0.06
27773 H 91.99798837566591 66.49576370360036 90.72801141040861 H 0.0 **** 0.06
27774 H 90.77494334499914 66.02707029017203 89.52104599894517 H 0.0 **** 0.06
27775 H 92.34604801569535 65.19052666239311 89.56833180373462 H 0.0 **** 0.06
27776 C 49.9729253029889 4.746541453277871 92.87789077306095 C 0.0 **** -0.24
27777 H 50.01937503236843 5.155371143016922 91.86834206702787 H 0.0 **** 0.06
27778 H 50.96862306705481 4.760445711744239 93.32211204568353 H 0.0 **** 0.06
27779 H 49.606542297896965 3.720091754669653 92.83768579831113 H 0.0 **** 0.06
27780 H 49.29600269321631 5.350286341123791 93.48261200622079 H 0.0 **** 0.06
27781 C 55.0104272258215 50.9187651075992 19.714372923169208 C 0.0 **** -0.24
27782 H 54.376555816222606 50.25147513508591 20.29787610600397 H 0.0 **** 0.06
27783 H 54.703062683936224 50.88878577039887 18.669221679684085 H 0.0 **** 0.06
27784 H 56.048271687029654 50.59854395119788 19.7976920353874 H 0.0 **** 0.06
27785 H 54.91267345822877 51.93566859699578 20.093861178025918 H 0.0 **** 0.06
27786 C 80.63368313102903 11.211048401751807 103.05150602040555 C 0.0 **** -0.24
27787 H 79.58310104558309 10.928733765647195 102.98053694919719 H 0.0 **** 0.06
27788 H 80.70878345919638 12.278952734489465 103.2604491230592 H 0.0 **** 0.06
27789 H 81.13423832310069 10.988934803990917 102.1090847186492 H 0.0 **** 0.06
27790 H 81.1079048809514 10.648784890763324 103.85577172769172 H 0.0 **** 0.06
27791 C 31.211941105306032 0.5776833568067445 97.32080085935704 C 0.0 **** -0.24
27792 H 30.313827059669705 0.035330661423074616 97.0246698151673 H 0.0 **** 0.06
27793 H 31.37433173897304 0.4549451054761562 98.39137334184129 H 0.0 **** 0.06
27794 H 31.091187360137802 1.6358045500256253 97.09000245062096 H 0.0 **** 0.06
27795 H 32.069656912077384 0.18293346822980538 96.77503438350888 H 0.0 **** 0.06
27796 C 67.53892604689982 29.06294129972764 20.004687624149113 C 0.0 **** -0.24
27797 H 67.5177134504513 28.47444554116936 20.92256762154861 H 0.0 **** 0.06
27798 H 66.5965907245603 29.600416504896373 19.89677363914292 H 0.0 **** 0.06
27799 H 67.68014538153174 28.400843787156703 19.151292186936757 H 0.0 **** 0.06
27800 H 68.3610542158559 29.77781121996037 20.051262122013185 H 0.0 **** 0.06
27801 C 90.26157193291874 96.37404992856328 103.09629782885918 C 0.0 **** -0.24
27802 H 90.25067577350106 95.36346530485073 102.68793541849476 H 0.0 **** 0.06
27803 H 91.14696778606077 96.9000410056833 102.74075264329795 H 0.0 **** 0.06
27804 H 90.27992698237443 96.3253474906321 104.18502324168372 H 0.0 **** 0.06
27805 H 89.36715690360222 96.90583070590229 102.7726069332702 H 0.0 **** 0.06
27806 C 97.92960800913659 70.68654398211396 16.881095715326694 C 0.0 **** -0.24
27807 H 97.0488986930969 70.53196522035624 17.50259089334392 H 0.0 **** 0.06
27808 H 98.53182606539258 71.49391618563105 17.29710698349507 H 0.0 **** 0.06
27809 H 97.6182515387029 70.94956931534661 15.869597943344559 H 0.0 **** 0.06
27810 H 98.51961691491039 69.7699579618269 16.85219121602256 H 0.0 **** 0.06
27811 C 4.113641169802577 107.9711732521657 55.42248055957389 C 0.0 **** -0.24
27812 H 3.433141677462686 108.82062498836937 55.364852046704065 H 0.0 **** 0.06
27813 H 4.033337209806149 107.38077357667406 54.50936151179431 H 0.0 **** 0.06
27814 H 3.8505831081325255 107.35225537116429 56.279688775054275 H 0.0 **** 0.06
27815 H 5.136165003086063 108.33169481235923 55.533056602451175 H 0.0 **** 0.06
27816 C 42.095365688415995 86.11114410251002 47.509831984164336 C 0.0 **** -0.24
27817 H 41.639132904584216 87.08381201384833 47.697173130878745 H 0.0 **** 0.06
27818 H 42.93510007062554 86.22913122761582 46.82545706035327 H 0.0 **** 0.06
27819 H 41.35630862375447 85.44355430564019 47.0669636321366 H 0.0 **** 0.06
27820 H 42.44883842017606 85.68823535483162 48.45053284661252 H 0.0 **** 0.06
27821 C 10.434823631022468 41.303423523639346 43.48410725379284 C 0.0 **** -0.24
27822 H 10.055101136454539 40.55725065890107 44.182090597739204 H 0.0 **** 0.06
27823 H 11.457412608985607 41.05073470893438 43.20229516962809 H 0.0 **** 0.06
27824 H 10.420321046523242 42.28436725317072 43.95980355380084 H 0.0 **** 0.06
27825 H 9.806102447623672 41.32198523879801 42.5943511299659 H 0.0 **** 0.06
27826 C 59.22674132094642 36.20974500017519 56.14955253680879 C 0.0 **** -0.24
27827 H 58.56639034854095 36.617228613142004 55.38373429101709 H 0.0 **** 0.06
27828 H 58.80338362321629 35.28307907145603 56.53800512856189 H 0.0 **** 0.06
27829 H 59.331102818431646 36.930014935417574 56.959314617549616 H 0.0 **** 0.06
27830 H 60.205094050182254 36.006917407854075 55.71415874110247 H 0.0 **** 0.06
27831 C 20.464674083167665 43.135522135061684 74.82080157271884 C 0.0 **** -0.24
27832 H 19.69907779531343 42.44707140662525 75.18033021457768 H 0.0 **** 0.06
27833 H 20.121573288390323 44.16135478749332 74.9575389455733 H 0.0 **** 0.06
27834 H 20.64977611193399 42.95242726069838 73.76261050201083 H 0.0 **** 0.06
27835 H 21.384520838771238 42.98069785105966 75.3843583399817 H 0.0 **** 0.06
27836 C 103.21422665013853 65.0469365262592 14.106792861027287 C 0.0 **** -0.24
27837 H 102.935871212417 64.50930999870845 15.01264703285662 H 0.0 **** 0.06
27838 H 102.90876893671367 66.08931881264391 14.195728801112267 H 0.0 **** 0.06
27839 H 102.71778327439898 64.59449521456278 13.248160394447353 H 0.0 **** 0.06
27840 H 104.29418107161132 64.99440071274186 13.971562458267499 H 0.0 **** 0.06
27841 C 0.8477889946178152 29.89804528299993 31.976945276468115 C 0.0 **** -0.24
27842 H 1.60321071960351 30.12636932041238 32.72938268713531 H 0.0 **** 0.06
27843 H 1.1957697855066272 30.235423360992115 30.999817677947455 H 0.0 **** 0.06
27844 H -0.08166457429052798 30.409009048232292 32.22821198180849 H 0.0 **** 0.06
27845 H 0.6748820268931581 28.822302134622817 31.950117873491607 H 0.0 **** 0.06
27846 C 22.223790875371662 9.973856861116838 77.94111250295869 C 0.0 **** -0.24
27847 H 23.20211292176981 9.58244655143487 78.21863685928258 H 0.0 **** 0.06
27848 H 21.70662681065005 10.32326019910353 78.8347944968274 H 0.0 **** 0.06
27849 H 21.63864356015057 9.186589455678583 77.46617514094963 H 0.0 **** 0.06
27850 H 22.34888570024293 10.804329316037675 77.24542887550255 H 0.0 **** 0.06
27851 C 8.11824635477896 76.52513439408702 7.391671198083188 C 0.0 **** -0.24
27852 H 7.773066536435229 77.35122355099992 8.012850260947118 H 0.0 **** 0.06
27853 H 8.099694804956002 76.82555720932697 6.344080709147704 H 0.0 **** 0.06
27854 H 7.465665668375712 75.66436314186333 7.53531008083138 H 0.0 **** 0.06
27855 H 9.136596521580145 76.25954061235345 7.675351901873356 H 0.0 **** 0.06
27856 C 103.94855546985667 32.14308267337765 45.12018080268666 C 0.0 **** -0.24
27857 H 104.54364598034408 32.95504676854313 44.70285906861534 H 0.0 **** 0.06
27858 H 104.39058848309332 31.187604824403422 44.83821494402878 H 0.0 **** 0.06
27859 H 102.93100249910606 32.20204191274959 44.73202529892575 H 0.0 **** 0.06
27860 H 103.92846994120026 32.22855530817131 46.20624839792424 H 0.0 **** 0.06
27861 C 82.55272269974103 0.9117306898440631 70.15378481672543 C 0.0 **** -0.24
27862 H 81.68531084635663 1.4009156894236412 69.70947340967787 H 0.0 **** 0.06
27863 H 82.21940689954371 0.17247869176773634 70.8830069956313 H 0.0 **** 0.06
27864 H 83.1757571328474 1.6561200704726673 70.64875589460905 H 0.0 **** 0.06
27865 H 83.12926417186868 0.41708994738183947 69.37201289551005 H 0.0 **** 0.06
27866 C 2.7310500030237677 13.038137771105 53.00720904195248 C 0.0 **** -0.24
27867 H 2.2325387530949 13.961727790468501 52.712136342774414 H 0.0 **** 0.06
27868 H 3.713557865062967 13.270438914256772 53.41816688247791 H 0.0 **** 0.06
27869 H 2.8442698365464025 12.391545143601178 52.1361687550142 H 0.0 **** 0.06
27870 H 2.1331090638610135 12.5281874458409 53.762588526880315 H 0.0 **** 0.06
27871 C 60.872715492884254 34.96377622185179 86.57035732657832 C 0.0 **** -0.24
27872 H 61.438592057941776 34.086519224687976 86.25831135060997 H 0.0 **** 0.06
27873 H 59.80938922017532 34.72239811264669 86.58897902041855 H 0.0 **** 0.06
27874 H 61.048309407483345 35.77780309869243 85.86705164287363 H 0.0 **** 0.06
27875 H 61.19423884294338 35.26876936591526 87.56576766308842 H 0.0 **** 0.06
27876 C 16.882128978648506 51.78617665714424 8.321806413812936 C 0.0 **** -0.24
27877 H 16.779210724863017 51.068263657807336 7.508527502472077 H 0.0 **** 0.06
27878 H 16.027145658488482 51.6985182313291 8.992691962120944 H 0.0 **** 0.06
27879 H 16.92042498076173 52.79571606407828 7.912182828651623 H 0.0 **** 0.06
27880 H 17.799901523760028 51.58207729388624 8.872549391960064 H 0.0 **** 0.06
27881 C 65.75918944889284 86.517104355341 10.966301522169573 C 0.0 **** -0.24
27882 H 65.75187307783543 86.79253844048081 12.021385617963261 H 0.0 **** 0.06
27883 H 65.10074274864539 87.1866482437876 10.412411809243224 H 0.0 **** 0.06
27884 H 65.40928460657778 85.49036552937902 10.856652650816244 H 0.0 **** 0.06
27885 H 66.77328513027874 86.59984546552613 10.576358345734832 H 0.0 **** 0.06
27886 C 52.42400376275141 2.400062324182329 24.806991107510385 C 0.0 **** -0.24
27887 H 52.239933983004555 2.9262549529568673 23.87032227742469 H 0.0 **** 0.06
27888 H 51.70403806524085 1.5879769910798132 24.91529965705695 H 0.0 **** 0.06
27889 H 52.31797049131237 3.094626838675481 25.640670885806855 H 0.0 **** 0.06
27890 H 53.4347343153796 1.9919172998671115 24.801138166438136 H 0.0 **** 0.06
27891 C 57.867547361482075 56.782461181774806 4.969940008607011 C 0.0 **** -0.24
27892 H 57.11457774180724 57.56974489024935 4.953817823612724 H 0.0 **** 0.06
27893 H 57.784392754056476 56.18153399416718 4.064251486228841 H 0.0 **** 0.06
27894 H 57.71041973946074 56.14836285120086 5.842812341368472 H 0.0 **** 0.06
27895 H 58.85989637271895 57.230397962176255 5.019949349732258 H 0.0 **** 0.06
27896 C 57.681961478855804 66.81758617017385 29.04547273187557 C 0.0 **** -0.24
27897 H 57.12337836690613 66.76850740601469 29.98084704573985 H 0.0 **** 0.06
27898 H 58.44636644952195 66.03947001490661 29.038599704870478 H 0.0 **** 0.06
27899 H 58.15720727216219 67.79491402569482 28.95778240979037 H 0.0 **** 0.06
27900 H 57.00159804765027 66.66714878337535 28.208324017292284 H 0.0 **** 0.06
27901 C 67.43568879068562 106.89669504160673 37.05613048551524 C 0.0 **** -0.24
27902 H 66.43582299988913 106.87720907181915 36.62316220207461 H 0.0 **** 0.06
27903 H 68.04727793717643 106.12177128769622 36.593017323964204 H 0.0 **** 0.06
27904 H 67.37006973090712 106.71603195541002 38.12863913717217 H 0.0 **** 0.06
27905 H 67.88872619249707 107.87274321816241 36.879144641061686 H 0.0 **** 0.06
27906 C 29.597409145255057 107.50137774429083 45.471729475012125 C 0.0 **** -0.24
27907 H 30.118774486871644 106.58791711945142 45.18734121658815 H 0.0 **** 0.06
27908 H 28.53236140583789 107.3912069691649 45.266606102205316 H 0.0 **** 0.06
27909 H 29.992465296433295 108.33946236048496 44.89702893714306 H 0.0 **** 0.06
27910 H 29.74586613327031 107.68887431621226 46.53552948409786 H 0.0 **** 0.06
27911 C 106.17394926666154 32.515211159254505 16.18572724739577 C 0.0 **** -0.24
27912 H 105.99088547090716 32.263666863179964 17.23061480145635 H 0.0 **** 0.06
27913 H 105.6733561957042 33.45264201364043 15.945702710394617 H 0.0 **** 0.06
27914 H 105.78529737257438 31.720843471213414 15.547998011931291 H 0.0 **** 0.06
27915 H 107.24583243224771 32.62100285929705 16.020735061287752 H 0.0 **** 0.06
27916 C 61.17936472891809 82.61728112812216 81.77500004320777 C 0.0 **** -0.24
27917 H 61.94167043417367 82.35944094472973 81.0388747938507 H 0.0 **** 0.06
27918 H 60.89105165273257 81.72251621716123 82.3268398706423 H 0.0 **** 0.06
27919 H 60.30782406121568 83.02705917824449 81.26585015393337 H 0.0 **** 0.06
27920 H 61.57918311518124 83.35899069328002 82.46682376882664 H 0.0 **** 0.06
27921 C 21.467064301689845 96.36251018954475 92.73229964335363 C 0.0 **** -0.24
27922 H 21.69807737235118 97.35939017076679 92.35637392580918 H 0.0 **** 0.06
27923 H 20.718936287165263 96.43650441339334 93.5215582777198 H 0.0 **** 0.06
27924 H 22.373758520999587 95.90687662223345 93.13116245472895 H 0.0 **** 0.06
27925 H 21.0788956547851 95.7490833557155 91.91925506905864 H 0.0 **** 0.06
27926 C 30.25528457103701 88.19028196945466 97.54935156865592 C 0.0 **** -0.24
27927 H 30.393972157636085 87.48649183142884 96.72960832802998 H 0.0 **** 0.06
27928 H 31.185121850181616 88.73230857041041 97.72429357537234 H 0.0 **** 0.06
27929 H 29.977121419274653 87.64663555419452 98.45256346516558 H 0.0 **** 0.06
27930 H 29.465749403388827 88.8969952819286 97.29255902880352 H 0.0 **** 0.06
27931 C 45.651138897925506 96.42116928059893 79.93312821001217 C 0.0 **** -0.24
27932 H 45.821779370532624 96.55081212232875 78.864391840725 H 0.0 **** 0.06
27933 H 46.48943571646703 95.87938833313818 80.37181915226222 H 0.0 **** 0.06
27934 H 44.73195852984679 95.85733086009735 80.08899514110578 H 0.0 **** 0.06
27935 H 45.5620302454235 97.3992856894576 80.40727678356325 H 0.0 **** 0.06
27936 C 47.23206454462246 61.14006605897535 55.76405153819485 C 0.0 **** -0.24
27937 H 46.7724923693151 62.008352387901596 55.292597303880314 H 0.0 **** 0.06
27938 H 48.31018752852731 61.28726319181084 55.8244806492109 H 0.0 **** 0.06
27939 H 47.01787116650132 60.24988367926295 55.172952247804005 H 0.0 **** 0.06
27940 H 46.82524804378539 61.0156299551594 56.76766095408465 H 0.0 **** 0.06
27941 C 66.67530459502046 1.0118047399350303 12.9572416980903 C 0.0 **** -0.24
27942 H 66.83898762167246 -0.05601470495622607 13.10951273272488 H 0.0 **** 0.06
27943 H 66.4395865640721 1.196938513167538 11.908965308075068 H 0.0 **** 0.06
27944 H 67.57655158968913 1.5589835693855036 13.23002356218241 H 0.0 **** 0.06
27945 H 65.84537511328438 1.3434038360761065 13.581567717884496 H 0.0 **** 0.06
27946 C 27.29995419737307 12.81620473654823 55.36950061021594 C 0.0 **** -0.24
27947 H 28.252325223796134 12.487624320669624 55.78745548687533 H 0.0 **** 0.06
27948 H 27.030936000066845 12.171870583839052 54.53141012393769 H 0.0 **** 0.06
27949 H 27.392268397977574 13.84492837527506 55.021772832608804 H 0.0 **** 0.06
27950 H 26.52740815764696 12.758757132356749 56.13610887941593 H 0.0 **** 0.06
27951 C 108.95096436311837 69.68668063329056 66.38911737547548 C 0.0 **** -0.24
27952 H 108.98088780685367 68.70342833301032 66.85795672379777 H 0.0 **** 0.06
27953 H 109.90971163597948 70.1860214731172 66.53110077324484 H 0.0 **** 0.06
27954 H 108.15968310968304 70.28167435229517 66.84620201049128 H 0.0 **** 0.06
27955 H 108.75187163121672 69.5744133333431 65.32337678886842 H 0.0 **** 0.06
27956 C 65.33410347907463 57.40040209503701 104.54973086369242 C 0.0 **** -0.24
27957 H 66.31595690832097 57.48295749743127 104.08390332084252 H 0.0 **** 0.06
27958 H 65.30261275562881 58.02147931676822 105.44544361243607 H 0.0 **** 0.06
27959 H 65.14641028153568 56.36154496120423 104.82066622561868 H 0.0 **** 0.06
27960 H 64.57073099611478 57.73656640522523 103.847006917465 H 0.0 **** 0.06
27961 C 39.37111932865173 108.41639295578344 34.114751246972844 C 0.0 **** -0.24
27962 H 39.220838167331976 108.40559070494422 35.19387807146137 H 0.0 **** 0.06
27963 H 40.05139602441531 109.22661363422252 33.8515517924784 H 0.0 **** 0.06
27964 H 38.414025656220986 108.568717072771 33.61551488310246 H 0.0 **** 0.06
27965 H 39.799048578803024 107.46514414530658 33.798316226678 H 0.0 **** 0.06
27966 C 82.51519898448316 56.59400313584673 15.967632319639058 C 0.0 **** -0.24
27967 H 83.13624364844316 56.802133411556134 16.8391076181563 H 0.0 **** 0.06
27968 H 81.9510107882216 55.67677631722406 16.13460679545299 H 0.0 **** 0.06
27969 H 83.14862012916188 56.47766055086153 15.089680843988852 H 0.0 **** 0.06
27970 H 81.82429497990618 57.42286102625379 15.80976473133786 H 0.0 **** 0.06
27971 C 64.78087522954647 27.217843798614524 66.0597272385576 C 0.0 **** -0.24
27972 H 65.44237617478456 27.047248430504823 66.90923862501046 H 0.0 **** 0.06
27973 H 65.23855814156252 27.94213060646834 65.38443994175674 H 0.0 **** 0.06
27974 H 63.8257259926734 27.60520038188713 66.41535725974066 H 0.0 **** 0.06
27975 H 64.61873689402654 26.279451027855373 65.53046834548354 H 0.0 **** 0.06
27976 C 35.71317571005011 107.73984367320428 70.88506342382851 C 0.0 **** -0.24
27977 H 34.720116223565924 108.15738535637637 70.7197224133871 H 0.0 **** 0.06
27978 H 36.15238835814253 108.18826241095434 71.77551313523344 H 0.0 **** 0.06
27979 H 36.34456219447131 107.95197664424006 70.02139760545606 H 0.0 **** 0.06
27980 H 35.634442342362945 106.66073748324202 71.02126476850259 H 0.0 **** 0.06
27981 C 100.31082155284372 17.715383633474005 86.34045001303895 C 0.0 **** -0.24
27982 H 99.94944583372461 18.50962032618048 86.99340063245847 H 0.0 **** 0.06
27983 H 99.7869810326784 17.764551144480777 85.38507228591885 H 0.0 **** 0.06
27984 H 100.12550675375581 16.74867072421668 86.80719123822706 H 0.0 **** 0.06
27985 H 101.38060021667457 17.840129871086617 86.17496643743505 H 0.0 **** 0.06
27986 C 80.40531320513355 104.57790910015171 26.623747613891396 C 0.0 **** -0.24
27987 H 79.6036130464509 103.84345260233447 26.69529711011738 H 0.0 **** 0.06
27988 H 80.88651060834644 104.49596389710435 25.64839845642399 H 0.0 **** 0.06
27989 H 81.13870951318796 104.3932458983101 27.408703804870783 H 0.0 **** 0.06
27990 H 79.99080981174598 105.57989739875246 26.740992319039634 H 0.0 **** 0.06
27991 C 11.709923947312106 13.55748691619732 56.60291686094245 C 0.0 **** -0.24
27992 H 10.936446248270755 13.187138636268486 55.93009722356942 H 0.0 **** 0.06
27993 H 12.537206254334137 13.959787293148764 56.01724860047182 H 0.0 **** 0.06
27994 H 12.070963360780794 12.739834319389956 57.22646125942801 H 0.0 **** 0.06
27995 H 11.296421800339743 14.34223979288474 57.23535001584794 H 0.0 **** 0.06
27996 C 107.18506464669554 14.940282283797018 72.95477064952057 C 0.0 **** -0.24
27997 H 106.18750829505777 15.034735379737015 73.38286381897855 H 0.0 **** 0.06
27998 H 107.52899714969838 15.917711604916349 72.61598275807042 H 0.0 **** 0.06
27999 H 107.15524945143623 14.25186817798479 72.11030458884662 H 0.0 **** 0.06
28000 H 107.87009047258886 14.556923831175311 73.71179432006537 H 0.0 **** 0.06
28001 C 102.70692681710443 47.05103378981852 15.336573327954198 C 0.0 **** -0.24
28002 H 103.71621908002362 46.76007197324 15.049014447984504 H 0.0 **** 0.06
28003 H 102.02706553893509 46.214774312547604 15.17100873456394 H 0.0 **** 0.06
28004 H 102.38798529532636 47.90217612944684 14.735313928219526 H 0.0 **** 0.06
28005 H 102.6940824364965 47.32647351109506 16.390741628341786 H 0.0 **** 0.06
28006 C 100.31723298667036 30.903817382599904 109.14493130743256 C 0.0 **** -0.24
28007 H 99.52068755087163 30.20481179615576 109.4007406963009 H 0.0 **** 0.06
28008 H 101.20025772687153 30.68170793005426 109.74478429073397 H 0.0 **** 0.06
28009 H 99.98634867604008 31.921792605283194 109.34782986340333 H 0.0 **** 0.06
28010 H 100.56160588499064 30.804694742785536 108.08730876016463 H 0.0 **** 0.06
28011 C 55.895006049728096 1.4465080755704633 95.34000267320143 C 0.0 **** -0.24
28012 H 56.43116206654193 1.2847386065541997 96.27451975223167 H 0.0 **** 0.06
28013 H 56.40590775968329 2.2121384937726276 94.75562060720266 H 0.0 **** 0.06
28014 H 54.87809854683417 1.7730403800269698 95.55735179608102 H 0.0 **** 0.06
28015 H 55.86485582585303 0.5161148219277578 94.77251853729089 H 0.0 **** 0.06
28016 C 91.75563581832927 72.39514691950171 37.7774459852437 C 0.0 **** -0.24
28017 H 92.80398648055507 72.6492395979769 37.62323954120791 H 0.0 **** 0.06
28018 H 91.58211273358356 72.19411244562002 38.83464688737965 H 0.0 **** 0.06
28019 H 91.50734978424276 71.5083604249009 37.19362352904196 H 0.0 **** 0.06
28020 H 91.12934393232803 73.22754902719919 37.45785088671391 H 0.0 **** 0.06
28021 C 67.646906217592 63.9545856372568 25.913849921212478 C 0.0 **** -0.24
28022 H 67.35807232110113 64.39392966007657 26.86807348941106 H 0.0 **** 0.06
28023 H 68.22262587821677 64.68087767466545 25.339162469277785 H 0.0 **** 0.06
28024 H 66.75233021803086 63.67597928298855 25.356742075861927 H 0.0 **** 0.06
28025 H 68.25470604689849 63.06663691778539 26.09180040205729 H 0.0 **** 0.06
28026 C 34.42727409929341 75.3432123488129 37.65010106104589 C 0.0 **** -0.24
28027 H 33.87347896056764 75.065380190064 36.75356155972018 H 0.0 **** 0.06
28028 H 34.99554079513814 74.48305345853593 38.00595155629395 H 0.0 **** 0.06
28029 H 33.73032789971012 75.66298018525276 38.42377949086165 H 0.0 **** 0.06
28030 H 35.11054278021493 76.15943622531492 37.415940118878396 H 0.0 **** 0.06
28031 C 5.728915418405663 65.4760676160591 34.77849855881635 C 0.0 **** -0.24
28032 H 4.762637453712685 64.98065007304547 34.865015278279145 H 0.0 **** 0.06
28033 H 5.799274706598169 66.26759211972646 35.52508440861453 H 0.0 **** 0.06
28034 H 5.829714407294304 65.90554806212967 33.78248706200071 H 0.0 **** 0.06
28035 H 6.525112757638382 64.74985057893781 34.94351521733728 H 0.0 **** 0.06
28036 C 71.59315977252294 56.031288336664375 55.93581259237173 C 0.0 **** -0.24
28037 H 71.55498720471206 55.386627735564275 55.05794505815056 H 0.0 **** 0.06
28038 H 70.64944490064346 55.96111710585141 56.478224966003964 H 0.0 **** 0.06
28039 H 71.75734869432466 57.06200752111376 55.62390916046464 H 0.0 **** 0.06
28040 H 72.40969115100535 55.713042098856846 56.58461128618396 H 0.0 **** 0.06
28041 C 82.06197453900143 104.16143172921383 64.84591033720716 C 0.0 **** -0.24
28042 H 81.34334045102617 104.19818699008924 64.02793607076791 H 0.0 **** 0.06
28043 H 81.63036616476893 104.63232713860775 65.72981341334389 H 0.0 **** 0.06
28044 H 82.96830656407604 104.69334450932209 64.55637808902475 H 0.0 **** 0.06
28045 H 82.3053042167856 103.12314920982959 65.0696622124197 H 0.0 **** 0.06
28046 C 55.718871953139754 36.04775664233833 104.2136093863478 C 0.0 **** -0.24
28047 H 55.85743817984781 35.11802406712724 103.66196947372887 H 0.0 **** 0.06
28048 H 54.84896371724681 36.575077882615915 103.82283988319185 H 0.0 **** 0.06
28049 H 56.60498855048079 36.67229548859689 104.10062503115165 H 0.0 **** 0.06
28050 H 55.5647287731539 35.822907157516795 105.26944199712779 H 0.0 **** 0.06
28051 C 97.9317726303623 0.09756708475453024 2.5110467866970403 C 0.0 **** -0.24
28052 H 98.81984253832798 0.014123887857465434 3.137986148671703 H 0.0 **** 0.06
28053 H 97.84749839271149 -0.7894959168995825 1.8816756356167526 H 0.0 **** 0.06
28054 H 98.01220267261175 0.9832514995691071 1.8820500365346895 H 0.0 **** 0.06
28055 H 97.04810334450227 0.1788867361829034 3.1436695421390066 H 0.0 **** 0.06
28056 C 24.659658426149406 38.08306001615114 88.72590742100675 C 0.0 **** -0.24
28057 H 25.225521603108717 37.46155840421454 89.420692660219 H 0.0 **** 0.06
28058 H 24.39189758512771 37.49569912029142 87.8476340177304 H 0.0 **** 0.06
28059 H 25.269268667628182 38.934231236111145 88.42267521730514 H 0.0 **** 0.06
28060 H 23.754107550539914 38.44049647382781 89.2156712737056 H 0.0 **** 0.06
28061 C 83.39543289457053 2.4382321598803607 100.04309019228637 C 0.0 **** -0.24
28062 H 82.87362179499718 3.2628293208656167 99.55715236120109 H 0.0 **** 0.06
28063 H 82.81369515630256 2.094209590081407 100.89886796097376 H 0.0 **** 0.06
28064 H 84.37447044598932 2.7771109669876397 100.38066307481013 H 0.0 **** 0.06
28065 H 83.5186276651392 1.6190911937980044 99.33459602080251 H 0.0 **** 0.06
28066 C 25.349163925770995 59.27841927734188 72.99490387322152 C 0.0 **** -0.24
28067 H 26.392231766826853 59.086281233596075 73.24547381183527 H 0.0 **** 0.06
28068 H 24.9067363256311 59.92267785176939 73.75461998149305 H 0.0 **** 0.06
28069 H 24.805507557889428 58.33430247241045 72.95677135382135 H 0.0 **** 0.06
28070 H 25.293819224708812 59.768988546647066 72.0238804206952 H 0.0 **** 0.06
28071 C 67.72526898605136 66.70578251225919 108.3145519294892 C 0.0 **** -0.24
28072 H 68.56259025483567 66.01983249693455 108.44378251472676 H 0.0 **** 0.06
28073 H 67.92413159472562 67.62817907242317 108.86078827337337 H 0.0 **** 0.06
28074 H 66.81564386615045 66.24363687959345 108.69839360270635 H 0.0 **** 0.06
28075 H 67.59969796542669 66.9300690635659 107.25541439722647 H 0.0 **** 0.06
28076 C 40.497414268684906 20.23328656487945 55.78762894270387 C 0.0 **** -0.24
28077 H 39.432309123956074 20.436618050690043 55.67080742438496 H 0.0 **** 0.06
28078 H 40.63009935351789 19.316818458380112 56.363329197477874 H 0.0 **** 0.06
28079 H 40.96991153626206 21.06402159828869 56.3107937817968 H 0.0 **** 0.06
28080 H 40.954156962396695 20.11560375300388 54.80421407426641 H 0.0 **** 0.06
28081 C 62.01675489787745 0.7646283175121482 100.24021225334488 C 0.0 **** -0.24
28082 H 62.80787661136176 0.27514496811289746 99.67165937186935 H 0.0 **** 0.06
28083 H 61.24322458543777 1.115429057047706 99.55717963893348 H 0.0 **** 0.06
28084 H 62.432569895615785 1.612748068056348 100.78482190687816 H 0.0 **** 0.06
28085 H 61.5841465045727 0.055669122618752453 100.94612280035254 H 0.0 **** 0.06
28086 C 1.2175166121680263 6.737249351340084 5.6440380812315425 C 0.0 **** -0.24
28087 H 0.9355426047450237 7.766442498175561 5.424220116285682 H 0.0 **** 0.06
28088 H 1.3902953377329226 6.6282223460801575 6.714699785569749 H 0.0 **** 0.06
28089 H 2.1297212883668095 6.486386656736272 5.100922535786324 H 0.0 **** 0.06
28090 H 0.4154214663117841 6.067053592715599 5.3351402385075914 H 0.0 **** 0.06
28091 C 81.66029315536571 16.16639057828985 55.390356688704635 C 0.0 **** -0.24
28092 H 80.72923175451666 15.636325860850107 55.18939666092162 H 0.0 **** 0.06
28093 H 81.62041444738215 17.15539836100882 54.934688913996816 H 0.0 **** 0.06
28094 H 82.4946798592037 15.605182500512711 54.9704767616546 H 0.0 **** 0.06
28095 H 81.79567506100126 16.26575556410596 56.46733124793614 H 0.0 **** 0.06
28096 C 15.638927087332291 2.771983065061164 6.882115927265332 C 0.0 **** -0.24
28097 H 15.455861266558514 2.1397232567935305 7.751651070657516 H 0.0 **** 0.06
28098 H 15.079860240909454 2.386197658802871 6.0292749246943345 H 0.0 **** 0.06
28099 H 16.7032479265074 2.7708322640523164 6.650323754669188 H 0.0 **** 0.06
28100 H 15.31514330276815 3.789652154879491 7.098981136084646 H 0.0 **** 0.06
28101 C 83.0828108104136 56.29765846632222 82.17877148732278 C 0.0 **** -0.24
28102 H 82.95670433358598 56.45824459369848 81.10838226750452 H 0.0 **** 0.06
28103 H 83.18308142484506 57.25908774907508 82.68139992725585 H 0.0 **** 0.06
28104 H 83.97904072165866 55.70133011658027 82.3528989148146 H 0.0 **** 0.06
28105 H 82.2137745653256 55.77069446785413 82.57167958371197 H 0.0 **** 0.06
28106 C 62.676381196858344 11.490269157374257 84.55495222501719 C 0.0 **** -0.24
28107 H 63.31433985136067 11.773820328575823 85.39209221116822 H 0.0 **** 0.06
28108 H 62.346899767478064 10.45918414362393 84.68321191292866 H 0.0 **** 0.06
28109 H 63.23778048651643 11.579544215675952 83.6242402785138 H 0.0 **** 0.06
28110 H 61.80802537241384 12.147698819219471 84.5202501592226 H 0.0 **** 0.06
28111 C 19.63159603443626 15.886790625920014 66.95520177635265 C 0.0 **** -0.24
28112 H 20.12687956923187 16.458620976942257 67.74020060041028 H 0.0 **** 0.06
28113 H 20.210167718138464 15.95880284359859 66.03451839689671 H 0.0 **** 0.06
28114 H 18.63188929594262 16.287047457678 66.78957050826585 H 0.0 **** 0.06
28115 H 19.559339411071058 14.84211147373972 67.25853877839796 H 0.0 **** 0.06
28116 C 32.873804767346314 17.12559388507401 75.88671110142006 C 0.0 **** -0.24
28117 H 32.36999834033023 18.01865106006369 75.51744316182086 H 0.0 **** 0.06
28118 H 33.25775695747083 17.312585531523908 76.88992929270566 H 0.0 **** 0.06
28119 H 33.69926138148719 16.873209251200933 75.22208626461676 H 0.0 **** 0.06
28120 H 32.1663891009448 16.296321886501417 75.91774237056788 H 0.0 **** 0.06
28121 C 92.74392391621888 53.16541523627859 56.49530289585988 C 0.0 **** -0.24
28122 H 93.25501858268541 52.48018427358596 57.17125379017328 H 0.0 **** 0.06
28123 H 91.74050540088751 53.36506734465888 56.87229788034504 H 0.0 **** 0.06
28124 H 92.67708433163371 52.71535050839924 55.50461773253676 H 0.0 **** 0.06
28125 H 93.30168719165766 54.09921090860712 56.43383280289783 H 0.0 **** 0.06
28126 C 16.677352642299837 60.57220218826235 3.9743270734172 C 0.0 **** -0.24
28127 H 16.228491138370174 61.128261586797706 4.797186807994009 H 0.0 **** 0.06
28128 H 16.92670334314937 61.25940361301413 3.164332991641473 H 0.0 **** 0.06
28129 H 15.96976988896742 59.826013172609436 3.6122753012204214 H 0.0 **** 0.06
28130 H 17.582835054511605 60.07611625671312 4.321953526186093 H 0.0 **** 0.06
28131 C 85.39186982679922 51.29527200310412 64.93139337822788 C 0.0 **** -0.24
28132 H 84.84760985350144 50.91342079047695 65.79482581251736 H 0.0 **** 0.06
28133 H 84.7029659172963 51.82237920556639 64.27103719884252 H 0.0 **** 0.06
28134 H 85.84953350930442 50.465110485261846 64.3930434099884 H 0.0 **** 0.06
28135 H 86.16959237677708 51.982472487707525 65.26755865262149 H 0.0 **** 0.06
28136 C 67.64944385757968 41.04754016628232 46.68499847176381 C 0.0 **** -0.24
28137 H 67.20503921822831 40.8365822781426 47.657795552711114 H 0.0 **** 0.06
28138 H 67.376343630301 40.25851879083041 45.98349262355593 H 0.0 **** 0.06
28139 H 68.73369116824614 41.08818775261591 46.782606567948115 H 0.0 **** 0.06
28140 H 67.28067588675435 42.0052506032946 46.31722573844847 H 0.0 **** 0.06
28141 C 12.950438538571575 53.343679842533625 6.467758314656663 C 0.0 **** -0.24
28142 H 13.9034749801786 53.64958725928385 6.0347801196053865 H 0.0 **** 0.06
28143 H 12.302979350748842 52.95468872851907 5.681321781226359 H 0.0 **** 0.06
28144 H 12.473641254798395 54.20211635751441 6.939914981030455 H 0.0 **** 0.06
28145 H 13.122928581888345 52.56801998990696 7.213502113281038 H 0.0 **** 0.06
28146 C 23.50360268582839 96.09093979094837 78.54281669737978 C 0.0 **** -0.24
28147 H 22.891037806465356 96.34371666521963 77.67701301541047 H 0.0 **** 0.06
28148 H 23.04528708835229 95.26217220900074 79.08144265132225 H 0.0 **** 0.06
28149 H 23.57700207322852 96.95675255534417 79.20016333484153 H 0.0 **** 0.06
28150 H 24.50056204983574 95.80154704133976 78.20990117287351 H 0.0 **** 0.06
28151 C 16.797033171234744 62.9904063747249 33.25542962023164 C 0.0 **** -0.24
28152 H 15.826391363678994 62.963906114466 32.76066901363143 H 0.0 **** 0.06
28153 H 17.43145218262913 62.201442300836106 32.85212694633691 H 0.0 **** 0.06
28154 H 16.66293771116753 62.83786365690935 34.32686232715966 H 0.0 **** 0.06
28155 H 17.26642450658869 63.95871479156585 33.082283904434476 H 0.0 **** 0.06
28156 C 1.1653327545195395 49.5045966930348 70.1798619042653 C 0.0 **** -0.24
28157 H 0.515121567616319 48.634989042202065 70.27586093858997 H 0.0 **** 0.06
28158 H 1.319417731998783 49.72743222939238 69.12318120537674 H 0.0 **** 0.06
28159 H 2.125313424204279 49.295172313474296 70.65130902289798 H 0.0 **** 0.06
28160 H 0.6995066716631584 50.36156440897222 70.66786429014297 H 0.0 **** 0.06
28161 C 86.70132325112263 82.8843236427511 4.5227761581917605 C 0.0 **** -0.24
28162 H 87.23122844032724 82.21908567408795 3.8409647443427843 H 0.0 **** 0.06
28163 H 87.11753295184309 82.78198267582425 5.525319279084357 H 0.0 **** 0.06
28164 H 85.64413826732766 82.62136794110992 4.538493007351235 H 0.0 **** 0.06
28165 H 86.81395796457127 83.91439745326588 4.185744718681207 H 0.0 **** 0.06
28166 C 72.59500331428126 83.95777318957266 81.42991789265147 C 0.0 **** -0.24
28167 H 73.21090168685532 83.27867219114836 82.01979153135414 H 0.0 **** 0.06
28168 H 71.55421775811823 83.86798988860136 81.74314195431822 H 0.0 **** 0.06
28169 H 72.68050764563634 83.7013516661807 80.37396340735884 H 0.0 **** 0.06
28170 H 72.93447602459531 84.98159043089726 81.58444090039438 H 0.0 **** 0.06
28171 C 47.29660118212374 80.51408453715283 25.51397080582231 C 0.0 **** -0.24
28172 H 47.908658393347594 80.8433318562391 26.352549331489953 H 0.0 **** 0.06
28173 H 46.24271214495087 80.58838279237597 25.782456446151514 H 0.0 **** 0.06
28174 H 47.53869510611895 79.47950596973493 25.270798885656745 H 0.0 **** 0.06
28175 H 47.49672119931813 81.1461067945927 24.647870474552903 H 0.0 **** 0.06
28176 C 1.5534090863491343 70.01023885844052 88.56701123013733 C 0.0 **** -0.24
28177 H 1.9230774948305651 70.53726363778597 89.44710614341604 H 0.0 **** 0.06
28178 H 1.101206591490154 69.0663717139874 88.87198597407122 H 0.0 **** 0.06
28179 H 2.3817605177761436 69.81402237653606 87.88692092996047 H 0.0 **** 0.06
28180 H 0.8070222882534068 70.62457847844496 88.06304946457654 H 0.0 **** 0.06
28181 C 63.47591008992708 88.43804846481788 68.24739511207082 C 0.0 **** -0.24
28182 H 64.48653214440515 88.59956126436703 67.87225041252071 H 0.0 **** 0.06
28183 H 63.24610553947434 87.37261941262375 68.22401379145674 H 0.0 **** 0.06
28184 H 62.7652387566917 88.97689320408867 67.62083908079046 H 0.0 **** 0.06
28185 H 63.4063935288832 88.80268860758446 69.27183097429167 H 0.0 **** 0.06
28186 C 23.641331126340987 44.87960140845743 70.11618744251723 C 0.0 **** -0.24
28187 H 24.281402173248665 45.461474479568494 69.45397027061131 H 0.0 **** 0.06
28188 H 23.22250736586102 45.53094947144476 70.8824746996612 H 0.0 **** 0.06
28189 H 24.229279452182993 44.09238292729293 70.58880433292893 H 0.0 **** 0.06
28190 H 22.832873256537226 44.43180993255211 69.53799841969482 H 0.0 **** 0.06
28191 C 44.69148881415455 47.77966093416973 8.426112792707983 C 0.0 **** -0.24
28192 H 44.1591841701366 48.66880938262798 8.76511530482037 H 0.0 **** 0.06
28193 H 44.37614609741499 47.53177358036405 7.411523318051508 H 0.0 **** 0.06
28194 H 44.46691901563264 46.94563927256042 9.090721036959337 H 0.0 **** 0.06
28195 H 45.76463442613991 47.97237268215545 8.435630093565209 H 0.0 **** 0.06
28196 C 77.7608500629355 4.5152032957811645 30.428371005978136 C 0.0 **** -0.24
28197 H 77.32602039019673 4.012055602518794 31.291877466099436 H 0.0 **** 0.06
28198 H 78.84349457095442 4.388596380732546 30.44107659227862 H 0.0 **** 0.06
28199 H 77.51886287115283 5.57729557545769 30.468645782332374 H 0.0 **** 0.06
28200 H 77.35372582503314 4.084788933284051 29.513786858125115 H 0.0 **** 0.06
28201 C 38.0032460008602 4.959084415600145 18.646543102950602 C 0.0 **** -0.24
28202 H 38.683334812560446 4.144376605835447 18.899001714400583 H 0.0 **** 0.06
28203 H 38.02570875641574 5.130196469239721 17.570113369067315 H 0.0 **** 0.06
28204 H 38.313749629189175 5.864755517310542 19.16621910484963 H 0.0 **** 0.06
28205 H 36.99124494915242 4.692855043244464 18.951634328792693 H 0.0 **** 0.06
28206 C 44.85343842365188 4.821801713153173 12.18162278303879 C 0.0 **** -0.24
28207 H 44.12427983920463 4.4766948621961635 12.914557211628448 H 0.0 **** 0.06
28208 H 45.432462405747856 5.6429810136927525 12.605217747774304 H 0.0 **** 0.06
28209 H 44.33449357833973 5.166997600551397 11.287684370853839 H 0.0 **** 0.06
28210 H 45.5222270034883 4.001951399808874 11.921007884425194 H 0.0 **** 0.06
28211 C 53.89431176079024 102.55674678332662 76.53329361075845 C 0.0 **** -0.24
28212 H 54.832890135718955 102.77784156632231 77.04312071410499 H 0.0 **** 0.06
28213 H 54.065283944598214 102.52426477249895 75.45724886379844 H 0.0 **** 0.06
28214 H 53.16554387921983 103.33403931243589 76.76260246522588 H 0.0 **** 0.06
28215 H 53.516548970473224 101.59258376180784 76.87156086900978 H 0.0 **** 0.06
28216 C 57.98247237223649 37.12574058419463 70.32579646969754 C 0.0 **** -0.24
28217 H 56.93871426993638 36.86060507458285 70.49340623911485 H 0.0 **** 0.06
28218 H 58.03978529494944 38.140299798270036 69.92963770680586 H 0.0 **** 0.06
28219 H 58.42428622521146 36.430873641250514 69.61164500694844 H 0.0 **** 0.06
28220 H 58.52665167079169 37.07233783354184 71.26917812240339 H 0.0 **** 0.06
28221 C 89.78254703183256 72.08191927098001 26.933768711428655 C 0.0 **** -0.24
28222 H 89.2108692431346 72.99426350543975 27.104816611302766 H 0.0 **** 0.06
28223 H 90.76698337783034 72.17868404836793 27.392569937656532 H 0.0 **** 0.06
28224 H 89.89526880459749 71.92085331189196 25.86161040896789 H 0.0 **** 0.06
28225 H 89.25716300974398 71.23606313915803 27.375621434813866 H 0.0 **** 0.06
28226 C 98.26011205777263 11.62637542246955 6.223731517516953 C 0.0 **** -0.24
28227 H 98.18996596057484 11.316493457894126 5.180641588470365 H 0.0 **** 0.06
28228 H 99.07081283771464 12.347599111419072 6.334409319480514 H 0.0 **** 0.06
28229 H 98.46078830501553 10.755684657709452 6.848064363341294 H 0.0 **** 0.06
28230 H 97.32067429061185 12.08523045669861 6.530569520109367 H 0.0 **** 0.06
28231 C 8.691170037295137 68.08827442571862 98.55273971420975 C 0.0 **** -0.24
28232 H 8.794918464016234 67.31455729995167 99.31285410735555 H 0.0 **** 0.06
28233 H 8.79995032681002 67.64294175464363 97.56410707435455 H 0.0 **** 0.06
28234 H 9.46223440662071 68.84539325371838 98.69732778541412 H 0.0 **** 0.06
28235 H 7.707967950772755 68.55112348303692 98.63673533318365 H 0.0 **** 0.06
28236 C 94.67400824013406 100.21348247227026 41.232169353274614 C 0.0 **** -0.24
28237 H 95.17369037616294 99.66016262016018 42.02753642886618 H 0.0 **** 0.06
28238 H 93.7101956181415 100.57373567390145 41.59093904340399 H 0.0 **** 0.06
28239 H 94.52050144670959 99.55761659516553 40.37542583232497 H 0.0 **** 0.06
28240 H 95.29196927792286 101.06081480721103 40.93593142758941 H 0.0 **** 0.06
28241 C 70.47451290126244 108.29954064442354 63.0092025293533 C 0.0 **** -0.24
28242 H 69.6581943413043 107.88862269760759 62.41571851036397 H 0.0 **** 0.06
28243 H 71.04727268860533 107.48442672325936 63.45337982151864 H 0.0 **** 0.06
28244 H 70.06739413750915 108.92962032048709 63.8003041671913 H 0.0 **** 0.06
28245 H 71.12482706091946 108.8951139047816 62.36872080809434 H 0.0 **** 0.06
28246 C 101.00491398600012 62.61019887695852 98.58674428444517 C 0.0 **** -0.24
28247 H 100.57639037592715 63.560577645782075 98.90630745165177 H 0.0 **** 0.06
28248 H 101.84442736527484 62.79765903337636 97.9168846980147 H 0.0 **** 0.06
28249 H 100.24629120431753 62.02759802519142 98.06528908617628 H 0.0 **** 0.06
28250 H 101.3529084442029 62.05711323037593 99.45960797781035 H 0.0 **** 0.06
28251 C 90.79027421046811 3.0824231135437543 57.99683657645381 C 0.0 **** -0.24
28252 H 91.06005900319025 3.341628172346736 59.02070266871337 H 0.0 **** 0.06
28253 H 90.87305582926524 2.0044771389403824 57.861368880498794 H 0.0 **** 0.06
28254 H 91.46259336500745 3.589995466518122 57.305231112877074 H 0.0 **** 0.06
28255 H 89.76439505969702 3.396409861767209 57.80229560157064 H 0.0 **** 0.06
28256 C 45.156992972268114 53.79684014194975 38.06028125098271 C 0.0 **** -0.24
28257 H 46.115798527040596 53.703988547392434 38.56992655050206 H 0.0 **** 0.06
28258 H 45.21518039862977 54.59645687335542 37.32188084137309 H 0.0 **** 0.06
28259 H 44.38040456262104 54.02925336409491 38.78890693984465 H 0.0 **** 0.06
28260 H 44.91860051779665 52.85665684046668 37.561381122100386 H 0.0 **** 0.06
28261 C 31.62788074538534 107.31286438050603 54.648211151295186 C 0.0 **** -0.24
28262 H 30.761811669589207 107.92555687960876 54.89782906870073 H 0.0 **** 0.06
28263 H 31.59377397506904 106.38559686381777 55.22024309910455 H 0.0 **** 0.06
28264 H 32.53985706028374 107.85689991043895 54.89350769397521 H 0.0 **** 0.06
28265 H 31.61678555571001 107.08461924105231 53.583004196716274 H 0.0 **** 0.06
28266 C 22.192556094005056 93.77665982239573 83.62043694433206 C 0.0 **** -0.24
28267 H 22.879249467293732 93.08798343151253 83.12876339769392 H 0.0 **** 0.06
28268 H 21.175103922491132 93.39150172297316 83.54385205168629 H 0.0 **** 0.06
28269 H 22.249273559172252 94.75204439682098 83.13826698074979 H 0.0 **** 0.06
28270 H 22.465976221003046 93.87433656669371 84.67099324669545 H 0.0 **** 0.06
28271 C 100.6011431765526 101.00190304921972 78.25065398710981 C 0.0 **** -0.24
28272 H 101.44523168356596 101.68991752725526 78.31177360031924 H 0.0 **** 0.06
28273 H 100.36003615678536 100.81478572574383 77.20364900233125 H 0.0 **** 0.06
28274 H 99.73849520985763 101.44067505368983 78.7504303326343 H 0.0 **** 0.06
28275 H 100.86454794347394 100.06237482759298 78.73684071174489 H 0.0 **** 0.06
28276 C 62.397615023788546 13.42003219927448 60.83591871034207 C 0.0 **** -0.24
28277 H 61.57395756721007 12.782117088816861 61.156406724614044 H 0.0 **** 0.06
28278 H 63.025044053476165 13.659864011478764 61.694654061412734 H 0.0 **** 0.06
28279 H 61.999730581400456 14.34079839665727 60.40847224611343 H 0.0 **** 0.06
28280 H 62.99144126648031 12.89804919616742 60.086246147245106 H 0.0 **** 0.06
28281 C 39.95673278651541 12.524867528756602 64.2456560601197 C 0.0 **** -0.24
28282 H 39.06505080990044 12.720855926663376 63.64945332063098 H 0.0 **** 0.06
28283 H 40.74763434283966 13.215048339890473 63.95394218753407 H 0.0 **** 0.06
28284 H 40.287143696676374 11.499413067831824 64.0773239776766 H 0.0 **** 0.06
28285 H 39.72426576145427 12.6628027499994 65.30226804631309 H 0.0 **** 0.06
28286 C 95.79235292355922 99.5645847937489 8.382993567330459 C 0.0 **** -0.24
28287 H 96.10927380069157 100.31634742035027 7.659865643721938 H 0.0 **** 0.06
28288 H 95.66836250982806 98.60557204638596 7.878906427484754 H 0.0 **** 0.06
28289 H 94.8444676849014 99.86600874378149 8.829140464944555 H 0.0 **** 0.06
28290 H 96.54730769881587 99.47041096447782 9.16406173317058 H 0.0 **** 0.06
28291 C 76.56390763710061 58.75748866954888 83.38405325415897 C 0.0 **** -0.24
28292 H 76.63322496752158 58.3068384879968 82.39391468156094 H 0.0 **** 0.06
28293 H 75.5858159042175 59.22470964587467 83.503002968283 H 0.0 **** 0.06
28294 H 77.34227938288953 59.51226172192145 83.49476871493442 H 0.0 **** 0.06
28295 H 76.69384398300582 57.98656768740844 84.14326022438291 H 0.0 **** 0.06
28296 C 86.76700966344745 105.1991956994541 53.85423867970415 C 0.0 **** -0.24
28297 H 87.66275381258671 105.80956026293939 53.971193397249415 H 0.0 **** 0.06
28298 H 86.49977546480417 105.14617552753617 52.798826149607194 H 0.0 **** 0.06
28299 H 85.94588801906602 105.64771818066089 54.414225051567726 H 0.0 **** 0.06
28300 H 86.95967437121443 104.19555534517133 54.23250998876264 H 0.0 **** 0.06
28301 C 35.02509934324692 20.26041826211116 29.13933500918364 C 0.0 **** -0.24
28302 H 34.802977689810376 19.628256013619634 29.999554613542017 H 0.0 **** 0.06
28303 H 34.52170446394922 19.86431201391018 28.257340505330347 H 0.0 **** 0.06
28304 H 36.10137769099333 20.275200943273603 28.967942922965364 H 0.0 **** 0.06
28305 H 34.67486187622717 21.274228799395104 29.333774674769302 H 0.0 **** 0.06
28306 C 103.78880091660105 92.97469679316453 53.83356349266306 C 0.0 **** -0.24
28307 H 104.2222722629794 93.2529564899317 52.8730724803261 H 0.0 **** 0.06
28308 H 104.10928829245748 93.68569125215055 54.595330914499236 H 0.0 **** 0.06
28309 H 104.12368882809608 91.97370119295618 54.10609197531611 H 0.0 **** 0.06
28310 H 102.70140754197601 92.98688027664332 53.758117598619194 H 0.0 **** 0.06
28311 C 51.73700717407638 9.281773478003828 102.34538672985443 C 0.0 **** -0.24
28312 H 51.32334698457612 9.697593263476818 103.26373469296918 H 0.0 **** 0.06
28313 H 52.792460135584975 9.05333318732906 102.49351823658213 H 0.0 **** 0.06
28314 H 51.631084111603656 10.00670465415584 101.53820957036712 H 0.0 **** 0.06
28315 H 51.200585292006565 8.368597514332293 102.0870572879859 H 0.0 **** 0.06
28316 C 83.52735409704098 46.09386284319089 90.26438944103006 C 0.0 **** -0.24
28317 H 83.7466000078378 45.180556329797355 89.71048841089771 H 0.0 **** 0.06
28318 H 84.31782793981944 46.8242295337551 90.0872749543496 H 0.0 **** 0.06
28319 H 83.4735299520301 45.86799840796198 91.32889967191971 H 0.0 **** 0.06
28320 H 82.57446821929298 46.501943555490925 89.92933954320057 H 0.0 **** 0.06
28321 C 30.705982009940612 9.522710310620838 76.67210838518486 C 0.0 **** -0.24
28322 H 31.167141134411906 9.490957084288382 75.68453160258362 H 0.0 **** 0.06
28323 H 31.47567627356557 9.40566347587631 77.43497838867103 H 0.0 **** 0.06
28324 H 29.980399290162495 8.712776818698662 76.76010510652476 H 0.0 **** 0.06
28325 H 30.201088321922214 10.47878661570629 76.8079255175705 H 0.0 **** 0.06
28326 C 62.70451031152976 6.120682819754677 100.94726366859489 C 0.0 **** -0.24
28327 H 63.48233621416293 6.530255212038696 101.59236693517255 H 0.0 **** 0.06
28328 H 62.739890760779645 5.031066541193269 100.983506435744 H 0.0 **** 0.06
28329 H 62.8675710305385 6.455988887175863 99.92339411244183 H 0.0 **** 0.06
28330 H 61.72900430541816 6.463613615857753 101.2912554370664 H 0.0 **** 0.06
28331 C 6.2555230206325945 26.72489082023354 70.93486499348256 C 0.0 **** -0.24
28332 H 5.267006949524131 27.145084670425803 70.74900220230649 H 0.0 **** 0.06
28333 H 6.837699083128356 26.746682639646224 70.01349697628564 H 0.0 **** 0.06
28334 H 6.153794650059751 25.695687756130454 71.27742914525601 H 0.0 **** 0.06
28335 H 6.762507170315729 27.31402547551629 71.69914589730871 H 0.0 **** 0.06
28336 C 65.93903933791464 40.06439701261539 26.257731764461454 C 0.0 **** -0.24
28337 H 66.82721972495465 39.8638476829272 26.856152506624166 H 0.0 **** 0.06
28338 H 65.73663394128985 39.211527508260474 25.61043547229699 H 0.0 **** 0.06
28339 H 66.10608992140513 40.95298330476723 25.647463415880406 H 0.0 **** 0.06
28340 H 65.08710665333254 40.23241583307066 26.916650002728666 H 0.0 **** 0.06
28341 C 10.265978360043448 67.6145735849754 80.64110201395772 C 0.0 **** -0.24
28342 H 9.415757812389472 67.15706574769786 80.13683880727174 H 0.0 **** 0.06
28343 H 10.709110766510491 66.89648340481614 81.331055653356 H 0.0 **** 0.06
28344 H 9.930725529457789 68.49131535935979 81.19496594197136 H 0.0 **** 0.06
28345 H 11.008867750241222 67.9147316501656 79.90161544294548 H 0.0 **** 0.06
28346 C 71.08807716502841 50.98306716645814 23.257053288000336 C 0.0 **** -0.24
28347 H 70.31570101599743 50.23675418435167 23.07563443798368 H 0.0 **** 0.06
28348 H 71.51972329796388 51.29722569818318 22.30716758104361 H 0.0 **** 0.06
28349 H 71.86815001093163 50.55431142672683 23.886943583072043 H 0.0 **** 0.06
28350 H 70.6490307991184 51.84586193395637 23.75963405106686 H 0.0 **** 0.06
28351 C 79.08231111133435 69.71359769914224 68.01871185388515 C 0.0 **** -0.24
28352 H 79.03640511214567 70.15374252508379 67.02273041808125 H 0.0 **** 0.06
28353 H 80.09671785073826 69.79914421831846 68.40786684550729 H 0.0 **** 0.06
28354 H 78.80155685337935 68.6612357061072 67.96371907657633 H 0.0 **** 0.06
28355 H 78.39354027042674 70.23888483714083 68.68033940298446 H 0.0 **** 0.06
28356 C 65.86939607739873 79.07158737258587 23.421058369244406 C 0.0 **** -0.24
28357 H 65.1361926354612 78.69031519459914 24.131519545488942 H 0.0 **** 0.06
28358 H 65.3912810757902 79.79216954626122 22.75708226350133 H 0.0 **** 0.06
28359 H 66.26851775542909 78.24504979475843 22.833530191563682 H 0.0 **** 0.06
28360 H 66.68100492658108 79.55757194023698 23.96177076739636 H 0.0 **** 0.06
28361 C 33.795305901329414 80.53818329592232 12.664169791335823 C 0.0 **** -0.24
28362 H 32.97500346495934 81.24890177575563 12.761837552423017 H 0.0 **** 0.06
28363 H 33.46479947902702 79.6814103979167 12.077369530664754 H 0.0 **** 0.06
28364 H 34.10658284723638 80.20367910772265 13.65363553647147 H 0.0 **** 0.06
28365 H 34.63504033092639 81.01975554787288 12.162871347013024 H 0.0 **** 0.06
28366 C 103.85895131030935 61.77226846961935 52.7128999331175 C 0.0 **** -0.24
28367 H 104.04351664944664 62.08456744374669 53.740573436778426 H 0.0 **** 0.06
28368 H 104.78233408818238 61.38823642440562 52.27920360804906 H 0.0 **** 0.06
28369 H 103.51189622985532 62.625537325886455 52.131514677739055 H 0.0 **** 0.06
28370 H 103.0988946021705 60.99089249039454 52.70211776541736 H 0.0 **** 0.06
28371 C 40.94583485104113 66.23646969164972 11.862430066963299 C 0.0 **** -0.24
28372 H 41.43616845094887 65.30162040641079 12.13150918579423 H 0.0 **** 0.06
28373 H 40.54880125963639 66.15991946758541 10.850000674879126 H 0.0 **** 0.06
28374 H 41.66845056558145 67.0509936050696 11.908843112136879 H 0.0 **** 0.06
28375 H 40.13081678861323 66.43303580626582 12.559053485687912 H 0.0 **** 0.06
28376 C 61.83312081833982 75.60474481637928 53.113306514561316 C 0.0 **** -0.24
28377 H 62.16176196781228 74.66446444211508 52.66981050378865 H 0.0 **** 0.06
28378 H 62.574594422514906 76.37934658327713 52.91517295556366 H 0.0 **** 0.06
28379 H 61.71839220646696 75.47773991766536 54.1892130641649 H 0.0 **** 0.06
28380 H 60.87702967263489 75.89649505317243 52.67712369485298 H 0.0 **** 0.06
28381 C 30.708708273252057 20.40186635017197 1.5835786497863467 C 0.0 **** -0.24
28382 H 31.081125621091104 20.408394583485972 0.5587666632000463 H 0.0 **** 0.06
28383 H 29.763750154360594 20.942872305541812 1.6299311819724664 H 0.0 **** 0.06
28384 H 31.43702630065951 20.88264802873583 2.2374064105249403 H 0.0 **** 0.06
28385 H 30.55496050253572 19.37217966058978 1.9062097111394962 H 0.0 **** 0.06
28386 C 17.147088999644893 28.634752061284473 100.44626480648715 C 0.0 **** -0.24
28387 H 18.135894459644874 28.18119059069761 100.367336380959 H 0.0 **** 0.06
28388 H 16.627107095107476 28.540169503124957 99.49389159458752 H 0.0 **** 0.06
28389 H 17.251133581095132 29.690093656378394 100.70071276999917 H 0.0 **** 0.06
28390 H 16.577115352248256 28.12800467041498 101.22467405666056 H 0.0 **** 0.06
28391 C 76.97569344791935 89.3429142173512 77.80489907684728 C 0.0 **** -0.24
28392 H 76.3904335758217 89.86752451808528 78.56030809979126 H 0.0 **** 0.06
28393 H 77.6624448915781 88.65099437333431 78.29371735385148 H 0.0 **** 0.06
28394 H 77.54408260896798 90.066184051623 77.21925206323698 H 0.0 **** 0.06
28395 H 76.30619219674452 88.78807809030786 77.1470884322162 H 0.0 **** 0.06
28396 C 55.92371661907664 97.88036593925166 98.73654716311998 C 0.0 **** -0.24
28397 H 55.64981330659889 96.90270121840824 99.13548904694264 H 0.0 **** 0.06
28398 H 56.790922451460254 97.77660842279691 98.08382262476962 H 0.0 **** 0.06
28399 H 56.16599871148661 98.55253960019786 99.56008760049369 H 0.0 **** 0.06
28400 H 55.087157781205875 98.28746528030014 98.16864197793555 H 0.0 **** 0.06
28401 C 40.100222093008085 81.45454281922619 94.09639680555821 C 0.0 **** -0.24
28402 H 39.986041213985004 81.29291169455252 95.16761755734025 H 0.0 **** 0.06
28403 H 39.12375064887391 81.39731126761305 93.6144715237235 H 0.0 **** 0.06
28404 H 40.75544574057301 80.68875090969907 93.68187592483069 H 0.0 **** 0.06
28405 H 40.53516652812431 82.4379860320078 93.92216828009911 H 0.0 **** 0.06
28406 C 92.056024218886 30.971533023153285 63.16480840890944 C 0.0 **** -0.24
28407 H 92.13805254905475 31.991394777444754 63.54068900167729 H 0.0 **** 0.06
28408 H 91.03717750504681 30.611324033619553 63.31024830361764 H 0.0 **** 0.06
28409 H 92.75043364537315 30.32775931725925 63.70562989386184 H 0.0 **** 0.06
28410 H 92.29969965878239 30.95551880065821 62.102051740276806 H 0.0 **** 0.06
28411 C 8.54988864284075 85.74321826525197 20.156580518846454 C 0.0 **** -0.24
28412 H 9.311674288546989 85.0387532082339 20.48934385515588 H 0.0 **** 0.06
28413 H 8.787566904713625 86.08593712011239 19.150075357877853 H 0.0 **** 0.06
28414 H 8.523337074360333 86.5964037408082 20.8341802572329 H 0.0 **** 0.06
28415 H 7.577309935588433 85.25103459044398 20.153301056395776 H 0.0 **** 0.06
28416 C 69.3493630577754 65.75568580082768 55.493028847155934 C 0.0 **** -0.24
28417 H 69.03351862427343 65.17782318174767 54.62447433015092 H 0.0 **** 0.06
28418 H 68.54831180906791 66.43274425568879 55.78880001323736 H 0.0 **** 0.06
28419 H 70.23944979748995 66.33137335947737 55.24106804270541 H 0.0 **** 0.06
28420 H 69.5758453063172 65.0781626568878 56.3168110306163 H 0.0 **** 0.06
28421 C 87.86506125209507 92.52692514968211 21.094923139984246 C 0.0 **** -0.24
28422 H 87.00974953919224 92.43215888522391 20.42622135867782 H 0.0 **** 0.06
28423 H 87.65034765600193 93.27776300823557 21.85545285879232 H 0.0 **** 0.06
28424 H 88.74203490444489 92.8291352985798 20.522736030799138 H 0.0 **** 0.06
28425 H 88.05813209700878 91.56724959458964 21.57552109762662 H 0.0 **** 0.06
28426 C 32.24540542262295 57.83046042155733 50.96002507358506 C 0.0 **** -0.24
28427 H 31.950848645372346 57.41356311269782 51.92348074844335 H 0.0 **** 0.06
28428 H 32.94710725685863 58.649659251492395 51.11838131220168 H 0.0 **** 0.06
28429 H 31.362731418165694 58.20209597766632 50.44039209144515 H 0.0 **** 0.06
28430 H 32.72045429747351 57.054774775565306 50.35915468538488 H 0.0 **** 0.06
28431 C 61.67405886416731 14.151537730065986 25.482731946078133 C 0.0 **** -0.24
28432 H 62.65732118367913 13.876238720751743 25.862296773940102 H 0.0 **** 0.06
28433 H 61.69536322437381 14.16356014412106 24.39311667585413 H 0.0 **** 0.06
28434 H 61.4064443156405 15.14207291679077 25.85163084595456 H 0.0 **** 0.06
28435 H 60.93656581830868 13.425476396351758 25.825012263934624 H 0.0 **** 0.06
28436 C 25.01752735218531 92.98707765075079 61.312603072125114 C 0.0 **** -0.24
28437 H 24.59505012465587 92.7094488397288 62.277541944778605 H 0.0 **** 0.06
28438 H 26.09143510365027 92.79846979139387 61.3179992354751 H 0.0 **** 0.06
28439 H 24.834590080898323 94.045480705285 61.12658478984396 H 0.0 **** 0.06
28440 H 24.54861098872604 92.39422395542942 60.5271249917062 H 0.0 **** 0.06
28441 C 84.8156279893187 21.35760124641362 20.101028576853793 C 0.0 **** -0.24
28442 H 84.93448894308457 22.41593300623699 19.868402625219062 H 0.0 **** 0.06
28443 H 85.74356745734022 20.9722359153073 20.524988278848582 H 0.0 **** 0.06
28444 H 84.57721757572165 20.81092142292283 19.18909356270626 H 0.0 **** 0.06
28445 H 84.00656277599398 21.23285387985311 20.821211521389785 H 0.0 **** 0.06
28446 C 9.626538491213637 13.993992343756702 24.174907668491898 C 0.0 **** -0.24
28447 H 10.282909200711828 14.073013679194446 25.041481369539127 H 0.0 **** 0.06
28448 H 9.715135468208231 12.997506841054019 23.74198378430384 H 0.0 **** 0.06
28449 H 9.913418091679205 14.739364951121672 23.432551502301322 H 0.0 **** 0.06
28450 H 8.594691204255511 14.166083903656727 24.483614017823356 H 0.0 **** 0.06
28451 C 71.16258207278376 25.617885518445938 3.60099385007652 C 0.0 **** -0.24
28452 H 71.88049004436276 26.059039851171228 4.292970655305581 H 0.0 **** 0.06
28453 H 70.1997664615108 25.503545617932048 4.100342841548368 H 0.0 **** 0.06
28454 H 71.52271820949912 24.640794436600256 3.2777340725816373 H 0.0 **** 0.06
28455 H 71.04820942435067 26.26763473447961 2.733922534888123 H 0.0 **** 0.06
28456 C 0.7668788670956843 60.75282564727698 74.6610255579223 C 0.0 **** -0.24
28457 H 1.7970525557229422 61.09736190080716 74.74588283862386 H 0.0 **** 0.06
28458 H 0.37204572503694067 60.538471564937495 75.65499842771561 H 0.0 **** 0.06
28459 H 0.7344550492408075 59.84842144065232 74.0537771961425 H 0.0 **** 0.06
28460 H 0.16226008901331568 61.52798600224871 74.18991576770117 H 0.0 **** 0.06
28461 C 19.484461971807093 4.793359620204853 43.78381388459303 C 0.0 **** -0.24
28462 H 18.438697470274434 4.960675130939308 44.04052765840697 H 0.0 **** 0.06
28463 H 19.965840766459593 4.219669231530929 44.575752425701126 H 0.0 **** 0.06
28464 H 19.988268686483707 5.7532082177465895 43.67188397172373 H 0.0 **** 0.06
28465 H 19.54432024278711 4.240397129377129 42.84662323516466 H 0.0 **** 0.06
28466 C 102.66059910340152 108.71588432782829 104.21884963929108 C 0.0 **** -0.24
28467 H 102.10676849075597 109.62973034015414 104.00275243129352 H 0.0 **** 0.06
28468 H 102.07895852121214 108.09134791607602 104.89729815885653 H 0.0 **** 0.06
28469 H 103.61273231252599 108.97071168028111 104.68416805883163 H 0.0 **** 0.06
28470 H 102.84189967392999 108.17391504610765 103.29079185354016 H 0.0 **** 0.06
28471 C 30.40228080709511 46.30044778934053 49.15980467596802 C 0.0 **** -0.24
28472 H 30.91107273921017 46.014547945186614 48.23965693158186 H 0.0 **** 0.06
28473 H 30.92099864525551 47.144984377217305 49.61535676456276 H 0.0 **** 0.06
28474 H 30.402764690003806 45.45775277083996 49.85177416757347 H 0.0 **** 0.06
28475 H 29.37463338673473 46.58420157499277 48.93410043826236 H 0.0 **** 0.06
28476 C 60.50663532160365 88.55176976437309 101.57128444337275 C 0.0 **** -0.24
28477 H 61.42366124108082 88.90894255178398 102.04122910864709 H 0.0 **** 0.06
28478 H 59.65840215057358 88.76711468360526 102.22092658102406 H 0.0 **** 0.06
28479 H 60.57698730255589 87.476886241465 101.40819914133272 H 0.0 **** 0.06
28480 H 60.3690970418869 89.05649110970327 100.61571634923536 H 0.0 **** 0.06
28481 C 45.20543103716548 21.85337657339909 16.98330386732391 C 0.0 **** -0.24
28482 H 46.10217142182393 22.395359497440893 16.681775940175925 H 0.0 **** 0.06
28483 H 44.60206553208418 22.484485276124587 17.636837189281835 H 0.0 **** 0.06
28484 H 45.49139715657775 20.946830701911267 17.51667599262069 H 0.0 **** 0.06
28485 H 44.62707344344432 21.588131842603218 16.09850978359745 H 0.0 **** 0.06
28486 C 27.447019955022085 90.40494707646303 14.583626791820219 C 0.0 **** -0.24
28487 H 26.760469770158636 89.84399712739094 13.949138111166782 H 0.0 **** 0.06
28488 H 28.16662798933217 90.93480414703345 13.960139353032115 H 0.0 **** 0.06
28489 H 27.973970457443656 89.71698175862844 15.244689380809312 H 0.0 **** 0.06
28490 H 26.88395784947947 91.12271205879267 15.180488062909738 H 0.0 **** 0.06
28491 C 72.0000089544399 92.02916523439862 21.09613019473835 C 0.0 **** -0.24
28492 H 72.86955364530681 92.14323362710314 21.743140455733936 H 0.0 **** 0.06
28493 H 71.3020611227836 92.84694452637518 21.279721565504985 H 0.0 **** 0.06
28494 H 71.51130888923063 91.07877988544448 21.309542409553558 H 0.0 **** 0.06
28495 H 72.31785950460596 92.04913121325527 20.053960715647293 H 0.0 **** 0.06
28496 C 22.460781366125673 59.681421780938706 38.21670159898417 C 0.0 **** -0.24
28497 H 23.407327878597016 60.176979169510005 38.0002357779357 H 0.0 **** 0.06
28498 H 21.674880505813547 60.11403259367451 37.597367602747596 H 0.0 **** 0.06
28499 H 22.212153718542822 59.81949782344756 39.268944043621076 H 0.0 **** 0.06
28500 H 22.550006869721926 58.616888746837915 38.000984020918395 H 0.0 **** 0.06
28501 C 77.4062067171643 4.544255062977527 20.11017813904894 C 0.0 **** -0.24
28502 H 76.4045895528596 4.4509720384375555 20.52937997032845 H 0.0 **** 0.06
28503 H 78.0561863157529 5.042765536064735 20.828499541314272 H 0.0 **** 0.06
28504 H 77.36267119346489 5.129449146533602 19.1918332221598 H 0.0 **** 0.06
28505 H 77.80075262054402 3.5520458226935716 19.889811973552014 H 0.0 **** 0.06
28506 C 27.397240762549814 46.76129062872616 76.54480416292384 C 0.0 **** -0.24
28507 H 26.52699867695182 46.981919103310275 77.16341686938371 H 0.0 **** 0.06
28508 H 27.619759258290088 45.695797530352365 76.59849604699465 H 0.0 **** 0.06
28509 H 28.253575964468325 47.33083348709559 76.90645846832027 H 0.0 **** 0.06
28510 H 27.187793563797783 47.03759093888482 75.51143207545694 H 0.0 **** 0.06
28511 C 23.133496670098225 34.328029085628515 47.26341061923131 C 0.0 **** -0.24
28512 H 23.803243051943383 33.729745307246134 47.88067323663512 H 0.0 **** 0.06
28513 H 23.669429243637552 35.19890660299063 46.885669303694385 H 0.0 **** 0.06
28514 H 22.284031367795365 34.65638631219136 47.86357907063598 H 0.0 **** 0.06
28515 H 22.777743879169435 33.72826449552241 46.42624683424344 H 0.0 **** 0.06
28516 C 41.91159468785824 3.499117312274194 46.50983501807866 C 0.0 **** -0.24
28517 H 41.41442367378599 3.8145432303426503 45.59313916782375 H 0.0 **** 0.06
28518 H 41.19928169036977 3.520134932734635 47.33471217503566 H 0.0 **** 0.06
28519 H 42.73822289870911 4.17517944342606 46.72594982208551 H 0.0 **** 0.06
28520 H 42.29315295565131 2.4854686697939883 46.38543806021585 H 0.0 **** 0.06
28521 C 86.20081735428563 5.303304127640521 44.464913405175 C 0.0 **** -0.24
28522 H 86.13995726803509 4.419623850357361 43.82897462991585 H 0.0 **** 0.06
28523 H 86.0212418921022 6.195551648302734 43.86582757101917 H 0.0 **** 0.06
28524 H 87.19328204225624 5.359225934327153 44.9137413568514 H 0.0 **** 0.06
28525 H 85.44921247114989 5.236515584487972 45.25183988160882 H 0.0 **** 0.06
28526 C 61.569009173728375 39.40204844310961 23.956103351110087 C 0.0 **** -0.24
28527 H 62.225909616423564 39.446042131339425 23.0880099376665 H 0.0 **** 0.06
28528 H 61.038911087639974 40.35039251373098 24.058931102510172 H 0.0 **** 0.06
28529 H 62.161566375439236 39.21861548997845 24.852421475706777 H 0.0 **** 0.06
28530 H 60.84792251805243 38.594799965183995 23.825574348423032 H 0.0 **** 0.06
28531 C 12.861797633307475 76.84058558061957 24.649718669683946 C 0.0 **** -0.24
28532 H 11.819847752091292 76.60220751336206 24.865167607998817 H 0.0 **** 0.06
28533 H 13.421825168933239 75.91738559831819 24.502818070847606 H 0.0 **** 0.06
28534 H 13.28696109129545 77.39602675360277 25.485009005735655 H 0.0 **** 0.06
28535 H 12.915396622479676 77.44673164860399 23.74487227274451 H 0.0 **** 0.06
28536 C 55.11226607176143 2.489918072075284 66.64307351902033 C 0.0 **** -0.24
28537 H 55.456028188381744 2.407834126690261 65.61242680512089 H 0.0 **** 0.06
28538 H 55.12020467683298 3.536941336849779 66.94560469458139 H 0.0 **** 0.06
28539 H 55.773924526457094 1.9185546175362163 67.294026474155 H 0.0 **** 0.06
28540 H 54.0989068953739 2.0963422072247226 66.72023610222394 H 0.0 **** 0.06
28541 C 33.8059617837986 90.96309389201335 13.347929859704692 C 0.0 **** -0.24
28542 H 33.87054509821073 90.27111556069893 12.508639198668305 H 0.0 **** 0.06
28543 H 34.348748984626695 91.87786522178132 13.107223825963402 H 0.0 **** 0.06
28544 H 34.24558798699742 90.50172756453605 14.23267887310584 H 0.0 **** 0.06
28545 H 32.76057120242039 91.20131299746001 13.543720678300758 H 0.0 **** 0.06
28546 C 104.9800267549191 55.02371490515701 8.157044732158624 C 0.0 **** -0.24
28547 H 104.8074665261434 54.917826156132286 9.227659676562439 H 0.0 **** 0.06
28548 H 104.02552609567533 55.145110488061654 7.644985689816565 H 0.0 **** 0.06
28549 H 105.48332322541214 54.13344248288969 7.780142181611609 H 0.0 **** 0.06
28550 H 105.60531369873854 55.898204901459955 7.974612849122309 H 0.0 **** 0.06
28551 C 43.76459277532973 88.26826149469227 20.55393526802567 C 0.0 **** -0.24
28552 H 42.836667033134006 87.73185165623345 20.357776853072153 H 0.0 **** 0.06
28553 H 43.5355668026649 89.27589831910913 20.90026456038106 H 0.0 **** 0.06
28554 H 44.35321747065501 88.32360573215807 19.63777486401642 H 0.0 **** 0.06
28555 H 44.33389005114296 87.7418112192818 21.31971497595015 H 0.0 **** 0.06
28556 C 34.90405813119047 51.840268883745466 3.7001021774474054 C 0.0 **** -0.24
28557 H 34.479277294462534 51.19415199273186 2.9319361397971875 H 0.0 **** 0.06
28558 H 35.94923524013337 51.5738003043889 3.862435945527494 H 0.0 **** 0.06
28559 H 34.34860297389216 51.71225694126946 4.629244997556057 H 0.0 **** 0.06
28560 H 34.83884424353085 52.87915941149794 3.37821021283834 H 0.0 **** 0.06
28561 C 106.12799867923673 26.897987781272978 79.98332880185177 C 0.0 **** -0.24
28562 H 106.03296398082387 26.984226580070356 78.89988602591717 H 0.0 **** 0.06
28563 H 105.15082881516497 27.039877221005668 80.44513537902588 H 0.0 **** 0.06
28564 H 106.81800773458946 27.65826856322029 80.34848283574195 H 0.0 **** 0.06
28565 H 106.51024577101947 25.909298370074517 80.2362166150184 H 0.0 **** 0.06
28566 C 54.395697860352676 55.84149746860578 78.19187116367678 C 0.0 **** -0.24
28567 H 53.58134780619771 56.24802943218708 77.59145992451653 H 0.0 **** 0.06
28568 H 54.73991374075507 54.9066984459061 77.75054812043832 H 0.0 **** 0.06
28569 H 54.04128561108266 55.65619487174678 79.20597410754019 H 0.0 **** 0.06
28570 H 55.2183683384833 56.556237304799765 78.21916820181691 H 0.0 **** 0.06
28571 C 66.6019714328811 95.21118350583697 100.13079319937809 C 0.0 **** -0.24
28572 H 66.11075838799185 96.12156258674486 99.78553301417116 H 0.0 **** 0.06
28573 H 66.10085952438715 94.84593872350388 101.0269003017133 H 0.0 **** 0.06
28574 H 67.64548471451869 95.42600386793148 100.35899280248942 H 0.0 **** 0.06
28575 H 66.54993561592491 94.45325053995538 99.349257691775 H 0.0 **** 0.06
28576 C 53.51343934151683 41.99120866508473 95.4617668421321 C 0.0 **** -0.24
28577 H 52.99747809220318 41.24536478242956 94.85740872174986 H 0.0 **** 0.06
28578 H 54.37115309635902 42.37628785049361 94.90798518441805 H 0.0 **** 0.06
28579 H 53.855887605128714 41.532950163997995 96.38949966422832 H 0.0 **** 0.06
28580 H 52.83137104448244 42.80922500677853 95.6900668339919 H 0.0 **** 0.06
28581 C 25.131959761473762 48.71176248535028 99.9840398843689 C 0.0 **** -0.24
28582 H 24.935827732869505 47.8227571926312 100.58360196509572 H 0.0 **** 0.06
28583 H 25.98927590689002 48.529810271457194 99.3344959087563 H 0.0 **** 0.06
28584 H 25.345808901489466 49.55356453784614 100.6414922696461 H 0.0 **** 0.06
28585 H 24.256270679646246 48.93850347588091 99.37525005492559 H 0.0 **** 0.06
28586 C 65.93058976935419 30.42616377431898 108.89181311520593 C 0.0 **** -0.24
28587 H 66.98600596113852 30.540117709946344 109.13938740696148 H 0.0 **** 0.06
28588 H 65.32853302337128 31.008317021326917 109.589697167554 H 0.0 **** 0.06
28589 H 65.6530103842087 29.374757917684803 108.96112569405855 H 0.0 **** 0.06
28590 H 65.75572775884626 30.781837486472796 107.87603391183177 H 0.0 **** 0.06
28591 C 24.881882675265302 87.16855277246196 70.579613493147 C 0.0 **** -0.24
28592 H 25.81353457925069 87.68694563593334 70.80812929791253 H 0.0 **** 0.06
28593 H 25.086764211146463 86.11246024623912 70.40767764880651 H 0.0 **** 0.06
28594 H 24.43432641931253 87.60350045529927 69.6861271980723 H 0.0 **** 0.06
28595 H 24.1944052260789 87.2739392682804 71.41871318489179 H 0.0 **** 0.06
28596 C 22.923105522077094 80.23690070629956 86.79271097086794 C 0.0 **** -0.24
28597 H 22.52400641657752 81.15734984421505 87.21838353526542 H 0.0 **** 0.06
28598 H 23.277988710097958 80.42811335780829 85.78026468547152 H 0.0 **** 0.06
28599 H 22.13948019878694 79.4794421833547 86.76650368778765 H 0.0 **** 0.06
28600 H 23.750366027119014 79.88169128934771 87.40649851467646 H 0.0 **** 0.06
28601 C 87.1473767079066 42.54860049598727 30.876184378209814 C 0.0 **** -0.24
28602 H 86.11062676066729 42.88613402804735 30.894557598506026 H 0.0 **** 0.06
28603 H 87.79136649180958 43.37069439220936 30.56483470742782 H 0.0 **** 0.06
28604 H 87.24737936858071 41.721755750740556 30.17200601325979 H 0.0 **** 0.06
28605 H 87.43783572994616 42.21479542109603 31.87204609732595 H 0.0 **** 0.06
28606 C 28.970267849863262 46.31912577959779 91.88348692180901 C 0.0 **** -0.24
28607 H 28.163093350725376 46.830832307282144 92.40880081041297 H 0.0 **** 0.06
28608 H 29.31412967616143 45.47488205569582 92.48092765824043 H 0.0 **** 0.06
28609 H 29.79598965804115 47.01319385710991 91.72465400354925 H 0.0 **** 0.06
28610 H 28.60638065040854 45.96039140544589 90.92056292204427 H 0.0 **** 0.06
28611 C 36.46108313208401 35.58473858470522 57.104245726852696 C 0.0 **** -0.24
28612 H 36.91805174243791 35.15560286262711 56.21241497145155 H 0.0 **** 0.06
28613 H 36.60702628174985 34.909632472184796 57.94767279174977 H 0.0 **** 0.06
28614 H 35.39352458425208 35.72653634067919 56.93216414456484 H 0.0 **** 0.06
28615 H 36.92445033340732 36.547031436748206 57.3229034229235 H 0.0 **** 0.06
28616 C 78.9292784594143 63.96637515304485 51.74344643551484 C 0.0 **** -0.24
28617 H 79.34548842763989 64.68828257649847 52.446962503391745 H 0.0 **** 0.06
28618 H 77.89891421263664 64.23714039113466 51.51257726004988 H 0.0 **** 0.06
28619 H 78.95409989828494 62.97100740963907 52.18741471550459 H 0.0 **** 0.06
28620 H 79.52025768324101 63.970637054266376 50.827744933524855 H 0.0 **** 0.06
28621 C 11.494785642348784 33.87614089611111 100.71035457834498 C 0.0 **** -0.24
28622 H 11.030229496075478 34.037762058446134 101.68323487231534 H 0.0 **** 0.06
28623 H 12.274259871151767 33.11976505081273 100.80157061736597 H 0.0 **** 0.06
28624 H 11.932377786975085 34.809637262556095 100.3571669661576 H 0.0 **** 0.06
28625 H 10.73970696680217 33.536299499473074 99.99988642559454 H 0.0 **** 0.06
28626 C 105.93470406075366 66.19263155054807 17.017154777059346 C 0.0 **** -0.24
28627 H 105.76717772969351 66.80501795393963 16.130396213473375 H 0.0 **** 0.06
28628 H 105.1541512872162 65.4340837684905 17.086520194151944 H 0.0 **** 0.06
28629 H 105.90892554193096 66.8238456552723 17.905131725151165 H 0.0 **** 0.06
28630 H 106.90802267192694 65.70682797719275 16.94453481685568 H 0.0 **** 0.06
28631 C 28.814621393824297 90.29663223889258 101.27313019849957 C 0.0 **** -0.24
28632 H 28.940526841692616 89.9232970843633 100.25751537255724 H 0.0 **** 0.06
28633 H 28.083802989872282 89.68057246565147 101.79828040962714 H 0.0 **** 0.06
28634 H 28.462809047643134 91.32847950590953 101.24021779412773 H 0.0 **** 0.06
28635 H 29.76944037683768 90.2552204649565 101.79764012016403 H 0.0 **** 0.06
28636 C 20.83692898109092 6.490266305790641 77.9728158167515 C 0.0 **** -0.24
28637 H 20.71621014306953 6.661632442102473 76.90306375060324 H 0.0 **** 0.06
28638 H 21.805547073557477 6.02541100348418 78.15920639935166 H 0.0 **** 0.06
28639 H 20.043512063896515 5.831547232518801 78.32758856081568 H 0.0 **** 0.06
28640 H 20.782446643839705 7.442474545057308 78.50140455623504 H 0.0 **** 0.06
28641 C 108.46133018261501 90.40590205154894 7.571479196082748 C 0.0 **** -0.24
28642 H 108.54881380966143 91.35683511066168 8.097457160515205 H 0.0 **** 0.06
28643 H 108.74421667050458 90.54185522914594 6.526494530820969 H 0.0 **** 0.06
28644 H 107.43110610681043 90.05458562992078 7.625488167633421 H 0.0 **** 0.06
28645 H 109.1211481696163 89.67228090130646 8.033986562598614 H 0.0 **** 0.06
28646 C 49.76982931757701 10.415044166300092 25.36233722989644 C 0.0 **** -0.24
28647 H 50.2063379094325 10.04867083581378 26.291710521508506 H 0.0 **** 0.06
28648 H 49.42895902393951 11.440191598606987 25.5007314408641 H 0.0 **** 0.06
28649 H 48.925399266500676 9.784323792991458 25.084721389470445 H 0.0 **** 0.06
28650 H 50.52111425784129 10.385330491894734 24.57201515029203 H 0.0 **** 0.06
28651 C 40.08178018886565 79.81411258468593 43.29043034742392 C 0.0 **** -0.24
28652 H 39.26960734352417 79.08758017538943 43.26112501896313 H 0.0 **** 0.06
28653 H 41.03660409088198 79.29013009725675 43.32164714825592 H 0.0 **** 0.06
28654 H 39.979693411203726 80.43678491907897 44.17958857235669 H 0.0 **** 0.06
28655 H 40.03935921657154 80.44179083852677 42.40008583352116 H 0.0 **** 0.06
28656 C 92.3779810347649 49.25538846527377 100.46242976867157 C 0.0 **** -0.24
28657 H 92.85357598639979 48.91336279214556 99.54364105155872 H 0.0 **** 0.06
28658 H 92.90925368418158 50.12783478470959 100.84404436693542 H 0.0 **** 0.06
28659 H 92.40695691019468 48.45841480205712 101.20555913110856 H 0.0 **** 0.06
28660 H 91.34119750271557 49.52339543296631 100.25652423713674 H 0.0 **** 0.06
28661 C 7.967085700703478 44.99814744450481 24.246917340423213 C 0.0 **** -0.24
28662 H 7.58490936103442 45.939634683237784 23.851540404332813 H 0.0 **** 0.06
28663 H 7.587776227270723 44.17112760990892 23.645769742038574 H 0.0 **** 0.06
28664 H 7.639883133005242 44.87765984982627 25.279067050281128 H 0.0 **** 0.06
28665 H 9.056372909133643 45.00519295359442 24.210031103589255 H 0.0 **** 0.06
28666 C 91.1132960584748 3.694750780855344 72.05258830779616 C 0.0 **** -0.24
28667 H 90.26476822805077 3.011207001295645 72.07719059613049 H 0.0 **** 0.06
28668 H 91.11878250209824 4.298787529919224 72.96036493780076 H 0.0 **** 0.06
28669 H 91.02982171548449 4.346665156608083 71.18299786032776 H 0.0 **** 0.06
28670 H 92.03821898959607 3.1226700328801655 71.99133495071504 H 0.0 **** 0.06
28671 C 33.579556257971845 107.3219236400975 109.59389884913648 C 0.0 **** -0.24
28672 H 32.57555032768394 107.41071231430091 110.00972039993093 H 0.0 **** 0.06
28673 H 33.551663739003395 106.6802575862687 108.71333565646421 H 0.0 **** 0.06
28674 H 34.24459101788727 106.888569295949 110.34070044786162 H 0.0 **** 0.06
28675 H 33.94343140962386 108.30957453487216 109.31207371384542 H 0.0 **** 0.06
28676 C 60.03470380897093 10.540310790632432 39.266651339155096 C 0.0 **** -0.24
28677 H 59.80674249120399 9.79369096487197 38.506542603082565 H 0.0 **** 0.06
28678 H 60.254955223457856 11.493298122456935 38.784664443132854 H 0.0 **** 0.06
28679 H 60.90014830225361 10.21695771324194 39.84542979520803 H 0.0 **** 0.06
28680 H 59.17727711613804 10.657859728571168 39.92870838961354 H 0.0 **** 0.06
28681 C 101.10901352445153 77.88618634171291 79.87380820950591 C 0.0 **** -0.24
28682 H 101.90726649746087 77.1880925920172 80.1251688117051 H 0.0 **** 0.06
28683 H 100.16761839076703 77.34294819753444 79.77957186366933 H 0.0 **** 0.06
28684 H 101.34018885704656 78.37752034246256 78.92854541957223 H 0.0 **** 0.06
28685 H 101.01995401388966 78.63507708651798 80.6602971675795 H 0.0 **** 0.06
28686 C 69.7213864311974 97.56352186534643 32.963153916811024 C 0.0 **** -0.24
28687 H 69.74655422112812 97.56140739979138 31.873515000837493 H 0.0 **** 0.06
28688 H 70.23139656358404 96.67614427597768 33.33958664516776 H 0.0 **** 0.06
28689 H 68.68579559087925 97.55914733564892 33.302434497343455 H 0.0 **** 0.06
28690 H 70.22359047019353 98.45661372315423 33.33664148036997 H 0.0 **** 0.06
28691 C 47.40655514098196 3.68481714528329 46.17849667377857 C 0.0 **** -0.24
28692 H 47.550952963357446 4.754003799418285 46.02310351566666 H 0.0 **** 0.06
28693 H 47.49220443267515 3.1639041953073956 45.22477408877131 H 0.0 **** 0.06
28694 H 46.41676806464716 3.509236649746299 46.60150253987359 H 0.0 **** 0.06
28695 H 48.16645790460541 3.311798662764403 46.86553807759054 H 0.0 **** 0.06
28696 C 7.273809954409941 42.096371510818415 53.24131648513215 C 0.0 **** -0.24
28697 H 7.504211948744597 41.06819710971051 53.51916023919073 H 0.0 **** 0.06
28698 H 6.267632353192937 42.14224192238947 52.823745603537745 H 0.0 **** 0.06
28699 H 7.991744704732312 42.442230029987286 52.498689145813174 H 0.0 **** 0.06
28700 H 7.33045524251159 42.73200829699617 54.124628445893315 H 0.0 **** 0.06
28701 C 48.846495358704715 68.98876740207078 85.31638743632362 C 0.0 **** -0.24
28702 H 48.23056411718545 68.11516826914351 85.5286752120918 H 0.0 **** 0.06
28703 H 48.988928329771795 69.07875181811323 84.23905574979341 H 0.0 **** 0.06
28704 H 49.814555308267416 68.87785790968894 85.80362846453448 H 0.0 **** 0.06
28705 H 48.34980366426237 69.88231197181324 85.69348064404289 H 0.0 **** 0.06
28706 C 25.184433067282143 49.28826629371798 32.206972042542866 C 0.0 **** -0.24
28707 H 24.239439354883032 49.67608027827805 32.58636500906238 H 0.0 **** 0.06
28708 H 25.009515327844753 48.343614781720305 31.693360222081253 H 0.0 **** 0.06
28709 H 25.87137627988865 49.12874146734305 33.03959791274938 H 0.0 **** 0.06
28710 H 25.618727969410884 50.00635557480706 31.51085809915115 H 0.0 **** 0.06
28711 C 83.33420325271123 33.97000358957476 5.300182264620545 C 0.0 **** -0.24
28712 H 82.66677488966866 33.13557069404098 5.516446007586978 H 0.0 **** 0.06
28713 H 83.72524391269297 33.86891818491202 4.287035246352431 H 0.0 **** 0.06
28714 H 84.160401279295 33.966839381842874 6.010828905835865 H 0.0 **** 0.06
28715 H 82.78376277092093 34.9066441165555 5.385760520319479 H 0.0 **** 0.06
28716 C 77.1469693265272 85.67000128228199 51.858327880075535 C 0.0 **** -0.24
28717 H 76.6835809158352 84.71717782859295 51.6063191271744 H 0.0 **** 0.06
28718 H 76.4578814080761 86.26021273805364 52.4632379488159 H 0.0 **** 0.06
28719 H 77.38311110652091 86.21283078562894 50.94281432058318 H 0.0 **** 0.06
28720 H 78.06376689513877 85.49065300326642 52.420766607257974 H 0.0 **** 0.06
28721 C 100.49282408790062 81.05288211435595 87.79319583448051 C 0.0 **** -0.24
28722 H 101.03407280148775 80.64618313793852 86.93908833326421 H 0.0 **** 0.06
28723 H 99.46128938112766 81.25929678560732 87.50537980777747 H 0.0 **** 0.06
28724 H 100.97129245906476 81.9770730248228 88.11897504830637 H 0.0 **** 0.06
28725 H 100.50624357069776 80.33070734874337 88.60868054973619 H 0.0 **** 0.06
28726 C 44.97256053543356 47.20456028317443 106.82825374142952 C 0.0 **** -0.24
28727 H 45.07949579291491 46.369591750841664 107.52180787736958 H 0.0 **** 0.06
28728 H 45.346244217488305 48.11514973809071 107.29740963683005 H 0.0 **** 0.06
28729 H 43.920650960912184 47.331186751765074 106.57341101030357 H 0.0 **** 0.06
28730 H 45.54409494368363 47.00026969798529 105.9229876866517 H 0.0 **** 0.06
28731 C 35.349185967253206 10.392144593043497 98.63698137928402 C 0.0 **** -0.24
28732 H 35.532878079067444 10.647330128944162 97.59261435275016 H 0.0 **** 0.06
28733 H 34.29385527173777 10.539493809099838 98.866252375873 H 0.0 **** 0.06
28734 H 35.95381868610158 11.033926398351412 99.27906340973932 H 0.0 **** 0.06
28735 H 35.61759510196428 9.350252659062761 98.80772542728944 H 0.0 **** 0.06
28736 C 30.77233483077029 104.96308639875383 62.87172966817906 C 0.0 **** -0.24
28737 H 30.567446026314585 104.85146372754689 63.93613033757248 H 0.0 **** 0.06
28738 H 30.70100655516839 103.99014526901149 62.38471453771638 H 0.0 **** 0.06
28739 H 31.776240016762074 105.36488292597149 62.735623914643156 H 0.0 **** 0.06
28740 H 30.0450872039319 105.6454713094192 62.43126217965067 H 0.0 **** 0.06
28741 C 52.32079377069897 48.67782888314869 108.50531022436888 C 0.0 **** -0.24
28742 H 53.25374185165069 48.7294430948468 109.06521257090179 H 0.0 **** 0.06
28743 H 52.06079218149529 49.67233050395504 108.14141104816701 H 0.0 **** 0.06
28744 H 51.52718413803811 48.30834251408896 109.15469796239847 H 0.0 **** 0.06
28745 H 52.44170444458328 48.001225481349934 107.6589507615364 H 0.0 **** 0.06
28746 C 27.017103345170767 105.89992423211044 55.997866216380885 C 0.0 **** -0.24
28747 H 27.792746236669217 105.5722488659988 56.69002069413477 H 0.0 **** 0.06
28748 H 26.355502790149018 106.60489363024158 56.500426337235126 H 0.0 **** 0.06
28749 H 26.442136662485865 105.0366391421656 55.66196137982985 H 0.0 **** 0.06
28750 H 27.479369440932658 106.38500516157762 55.13722024311522 H 0.0 **** 0.06
28751 C 73.6849876044875 88.59008491097433 61.726943457887515 C 0.0 **** -0.24
28752 H 73.77148144387826 89.62832834779545 62.04480846702718 H 0.0 **** 0.06
28753 H 72.99367303891131 88.52318735834058 60.886837657709435 H 0.0 **** 0.06
28754 H 73.31149924758023 87.98686161159696 62.55483414812822 H 0.0 **** 0.06
28755 H 74.66443368721428 88.22052187677536 61.42257128522989 H 0.0 **** 0.06
28756 C 54.52863785922028 1.8885775900679391 0.3659844282395568 C 0.0 **** -0.24
28757 H 55.191013418864806 2.3302940734693323 1.1110435349447272 H 0.0 **** 0.06
28758 H 55.123375790113855 1.47851942567317 -0.45029981305387423 H 0.0 **** 0.06
28759 H 53.856500819394256 2.6543743441174428 -0.021131824319084558 H 0.0 **** 0.06
28760 H 53.94485248411081 1.0920458730332285 0.8267193794519727 H 0.0 **** 0.06
28761 C 53.73940045908404 34.81882394613439 49.00150566642748 C 0.0 **** -0.24
28762 H 54.04708150856909 34.87317097829731 47.95646656871608 H 0.0 **** 0.06
28763 H 52.77225167510201 35.30666300823307 49.11974315996062 H 0.0 **** 0.06
28764 H 54.47961727622459 35.32031895383875 49.62512549851374 H 0.0 **** 0.06
28765 H 53.65922508658505 33.77335310809053 49.30195462925957 H 0.0 **** 0.06
28766 C 17.807877528144374 81.12876997100773 43.02052856178024 C 0.0 **** -0.24
28767 H 17.888975523113483 80.55021922331602 42.10010038430866 H 0.0 **** 0.06
28768 H 18.73026142138826 81.03131497846041 43.59374089492351 H 0.0 **** 0.06
28769 H 16.971438397045617 80.75575671034582 43.61115494640211 H 0.0 **** 0.06
28770 H 17.64086697347634 82.17780256443285 42.77570420490102 H 0.0 **** 0.06
28771 C 82.69156792430374 93.0021693816518 53.354419357843426 C 0.0 **** -0.24
28772 H 81.84358761424615 92.91305652361618 52.67524547373722 H 0.0 **** 0.06
28773 H 83.43987747053926 92.25054625693728 53.10032403628833 H 0.0 **** 0.06
28774 H 82.35452520336864 92.84799873067581 54.37955275697607 H 0.0 **** 0.06
28775 H 83.12826900590079 93.99636015444293 53.26043676001569 H 0.0 **** 0.06
28776 C 63.76080979761434 20.738134434141998 12.21567477645101 C 0.0 **** -0.24
28777 H 64.6806733425122 20.39662371201139 12.691226445213452 H 0.0 **** 0.06
28778 H 63.25579759942542 21.447294379911582 12.872616010051207 H 0.0 **** 0.06
28779 H 63.10890468193287 19.884708304261565 12.031375064821507 H 0.0 **** 0.06
28780 H 63.99986610660528 21.22426267811791 11.270459343158333 H 0.0 **** 0.06
28781 C 68.80784459497144 42.59629930887791 1.832768376834892 C 0.0 **** -0.24
28782 H 69.35059475952488 43.47101196805026 1.4723187111809466 H 0.0 **** 0.06
28783 H 69.03508220141447 42.437248998734475 2.8865424969815763 H 0.0 **** 0.06
28784 H 69.10886140359568 41.72128016057235 1.2581005113728025 H 0.0 **** 0.06
28785 H 67.73681575816386 42.7599515252032 1.7122276715685132 H 0.0 **** 0.06
28786 C 78.64641641070095 53.67272672522097 31.68601851185818 C 0.0 **** -0.24
28787 H 77.967945998294 54.19787103492337 31.013879236647767 H 0.0 **** 0.06
28788 H 78.91396990515057 54.32801972805356 32.515725771109175 H 0.0 **** 0.06
28789 H 79.5467508290559 53.38671444176941 31.14325547204163 H 0.0 **** 0.06
28790 H 78.15531644330632 52.779914696195874 32.07196711451084 H 0.0 **** 0.06
28791 C 82.65022385644113 19.600207636903264 72.26157913850722 C 0.0 **** -0.24
28792 H 82.71565433431866 18.799613332528594 71.5245258877884 H 0.0 **** 0.06
28793 H 83.07110619310214 20.514346681486728 71.84342162433347 H 0.0 **** 0.06
28794 H 83.2089578391554 19.318316265443116 73.1550294973074 H 0.0 **** 0.06
28795 H 81.60575041210967 19.767214808287775 72.52470969491162 H 0.0 **** 0.06
28796 C 62.89888897673205 25.717986268102653 88.18357207011825 C 0.0 **** -0.24
28797 H 62.71237821513225 26.707938560031 88.5993232408583 H 0.0 **** 0.06
28798 H 63.941363027073436 25.644818460369763 87.87540143768958 H 0.0 **** 0.06
28799 H 62.25184108107021 25.559664891760406 87.32060553371306 H 0.0 **** 0.06
28800 H 62.68799792037041 24.960911443360846 88.93937004136522 H 0.0 **** 0.06
28801 C 108.95913096390268 59.5206522431904 60.81255247646857 C 0.0 **** -0.24
28802 H 108.78187077069833 58.52021096458316 61.20684794811848 H 0.0 **** 0.06
28803 H 108.68317925652772 60.26197237522808 61.564301846667675 H 0.0 **** 0.06
28804 H 108.35728229996471 59.6699949432757 59.91625297526954 H 0.0 **** 0.06
28805 H 110.01446850711923 59.63189019135541 60.56369780202081 H 0.0 **** 0.06
28806 C 53.938269946980796 10.56708695252027 57.67505500211073 C 0.0 **** -0.24
28807 H 53.5593560270957 9.611944831562809 58.039489718179084 H 0.0 **** 0.06
28808 H 54.87180809697497 10.405479411126123 57.13467507684452 H 0.0 **** 0.06
28809 H 54.11682527979349 11.23358256981733 58.51823611941224 H 0.0 **** 0.06
28810 H 53.2040227741432 11.016025680301908 57.006049787132326 H 0.0 **** 0.06
28811 C 75.28622445376287 50.182457130519985 82.00544344148932 C 0.0 **** -0.24
28812 H 75.08482267071575 51.06072273001035 82.61833143634618 H 0.0 **** 0.06
28813 H 76.09985623315632 50.400592643535106 81.31355248311087 H 0.0 **** 0.06
28814 H 74.3906562409744 49.919677217720675 81.44234206448266 H 0.0 **** 0.06
28815 H 75.56790003072399 49.34814516087547 82.64841879581388 H 0.0 **** 0.06
28816 C 91.44054641812497 69.04327576196789 17.51214969475373 C 0.0 **** -0.24
28817 H 91.2114699382567 68.7694769023226 18.541707843151755 H 0.0 **** 0.06
28818 H 91.50997276089547 68.14147349999587 16.903797387775313 H 0.0 **** 0.06
28819 H 92.39052056289583 69.5772935130592 17.480716361257407 H 0.0 **** 0.06
28820 H 90.65022241045199 69.68485913249384 17.122377186830477 H 0.0 **** 0.06
28821 C 15.52207967109132 73.60253848139807 89.14692062349827 C 0.0 **** -0.24
28822 H 14.796052128202831 73.24534636650853 88.41725041393634 H 0.0 **** 0.06
28823 H 16.28259356866235 72.83854147278244 89.30607781354507 H 0.0 **** 0.06
28824 H 15.015992385942027 73.81342676861796 90.08952218443075 H 0.0 **** 0.06
28825 H 15.992839353496379 74.51342951348983 88.77580371457422 H 0.0 **** 0.06
28826 C 32.96039858479747 2.662985951310759 34.063830528902365 C 0.0 **** -0.24
28827 H 33.50054832272226 3.4617340316489447 34.57407628107932 H 0.0 **** 0.06
28828 H 33.6139274445346 1.797917008865312 33.951796550329284 H 0.0 **** 0.06
28829 H 32.6440921934196 3.0099073050601532 33.07990943229285 H 0.0 **** 0.06
28830 H 32.08534265621801 2.3841001872888796 34.6503735261259 H 0.0 **** 0.06
28831 C 39.02971290181824 98.14055268931503 11.361580229808567 C 0.0 **** -0.24
28832 H 38.46224651013068 97.30087758234669 10.95997658810876 H 0.0 **** 0.06
28833 H 39.84934135924334 98.38231174494865 10.684009070825255 H 0.0 **** 0.06
28834 H 39.43266172547948 97.87277525488383 12.338983635898046 H 0.0 **** 0.06
28835 H 38.37504820377217 99.00547561776523 11.463806821334003 H 0.0 **** 0.06
28836 C 16.320945453613746 1.5361537244867378 36.493605805555575 C 0.0 **** -0.24
28837 H 15.837338469490987 1.044615507390489 37.337233261429375 H 0.0 **** 0.06
28838 H 15.889560234038143 1.1686899089703644 35.562193422575604 H 0.0 **** 0.06
28839 H 17.38928043571721 1.3190510874070895 36.509721187983814 H 0.0 **** 0.06
28840 H 16.16826544486399 2.613562337556928 36.56434765594611 H 0.0 **** 0.06
28841 C 99.91773751750598 27.526217138480206 65.698471345015 C 0.0 **** -0.24
28842 H 99.06911910678772 27.82119517009596 66.31512325947831 H 0.0 **** 0.06
28843 H 99.56113195003879 27.208130721112667 64.71795033749798 H 0.0 **** 0.06
28844 H 100.44534238881585 26.70172782070002 66.17800583593943 H 0.0 **** 0.06
28845 H 100.59450501830165 28.371756489009066 65.58261050474682 H 0.0 **** 0.06
28846 C 10.59159424192626 23.5729060516438 64.03041800214658 C 0.0 **** -0.24
28847 H 10.914818585437217 23.777414009635265 65.05162828166661 H 0.0 **** 0.06
28848 H 9.962357286796191 22.683389108633065 64.02020599122834 H 0.0 **** 0.06
28849 H 11.465850147787876 23.40805644494378 63.39979439396453 H 0.0 **** 0.06
28850 H 10.025686671215226 24.424073469317364 63.651726156533 H 0.0 **** 0.06
28851 C 75.30472647204607 96.48808299264736 69.95486623469773 C 0.0 **** -0.24
28852 H 74.47983004681822 95.79069114117384 69.81254510111489 H 0.0 **** 0.06
28853 H 76.05875866095448 96.03259613588311 70.5968086353422 H 0.0 **** 0.06
28854 H 74.93282875454372 97.4006941212875 70.4209540954181 H 0.0 **** 0.06
28855 H 75.74731841327343 96.72930403289098 68.9881265208655 H 0.0 **** 0.06
28856 C 67.20514887520147 71.75588763503404 73.68343685423226 C 0.0 **** -0.24
28857 H 66.42922116499875 71.00358347741356 73.53797703202936 H 0.0 **** 0.06
28858 H 66.8792465074041 72.47319193251955 74.43646476823295 H 0.0 **** 0.06
28859 H 67.3897513665778 72.27398668328405 72.74220352732391 H 0.0 **** 0.06
28860 H 68.12271746231568 71.27036274822343 74.01710342435977 H 0.0 **** 0.06
28861 C 43.49929315528733 52.74830964070128 86.28312941360824 C 0.0 **** -0.24
28862 H 43.485053091128364 52.453704064872 85.2333762607594 H 0.0 **** 0.06
28863 H 42.87577440744352 53.63233954513629 86.42075360513269 H 0.0 **** 0.06
28864 H 44.52192147183566 52.97467110274869 86.5832437704922 H 0.0 **** 0.06
28865 H 43.11287183319221 51.93142543699736 86.89359946363345 H 0.0 **** 0.06
28866 C 95.76493523069027 86.6467621893592 0.1392595028228527 C 0.0 **** -0.24
28867 H 95.503945842828 86.46658082244991 -0.9038244356322309 H 0.0 **** 0.06
28868 H 95.90041910836052 85.69315475366771 0.6499931555927674 H 0.0 **** 0.06
28869 H 94.96482433801559 87.20827773087909 0.6222095518700144 H 0.0 **** 0.06
28870 H 96.69140979452605 87.21997584337434 0.1880438498823196 H 0.0 **** 0.06
28871 C 82.00738889761416 55.06029363767033 41.25776342677415 C 0.0 **** -0.24
28872 H 81.44430876675261 55.418258807077336 40.39479201531503 H 0.0 **** 0.06
28873 H 82.06464571423632 53.972357693439676 41.228337519643816 H 0.0 **** 0.06
28874 H 81.50564446600842 55.373739689173306 42.17383166370374 H 0.0 **** 0.06
28875 H 83.01281571811964 55.47976335501852 41.23322987147861 H 0.0 **** 0.06
28876 C 81.24560917679241 21.490633806934397 3.4311478411458722 C 0.0 **** -0.24
28877 H 82.32402097835973 21.354098107291804 3.5044881255564633 H 0.0 **** 0.06
28878 H 80.76384333716396 21.05406174697663 4.305601578582753 H 0.0 **** 0.06
28879 H 80.87790476421128 20.998754059204487 2.530292874308799 H 0.0 **** 0.06
28880 H 81.01665815067042 22.554642350938252 3.3821983660974126 H 0.0 **** 0.06
28881 C 60.3301306932881 94.57132037464288 18.11426116391702 C 0.0 **** -0.24
28882 H 60.26669356967025 95.62199093525277 17.833920496996313 H 0.0 **** 0.06
28883 H 59.418109255359624 94.05744208425384 17.808493401621305 H 0.0 **** 0.06
28884 H 60.44786012054057 94.48974443621391 19.19539856244731 H 0.0 **** 0.06
28885 H 61.1878757333706 94.11496797379421 17.62087818740099 H 0.0 **** 0.06
28886 C 75.51613840123144 69.42223424627804 48.516687131116704 C 0.0 **** -0.24
28887 H 76.13195798240817 70.31902352168262 48.59686936758516 H 0.0 **** 0.06
28888 H 74.51445467878854 69.69846645931885 48.18755897535203 H 0.0 **** 0.06
28889 H 75.45792006826414 68.93379052727606 49.48895313435421 H 0.0 **** 0.06
28890 H 75.9620866887345 68.73975531745232 47.793029400501815 H 0.0 **** 0.06
28891 C 16.500929576584753 2.789475416697422 12.0500196781387 C 0.0 **** -0.24
28892 H 16.377738759377195 2.3672717457730617 13.047586703154703 H 0.0 **** 0.06
28893 H 17.288334215859038 3.5433777525430283 12.06933540648668 H 0.0 **** 0.06
28894 H 15.565228738593504 3.2497466598173848 11.732713538578043 H 0.0 **** 0.06
28895 H 16.771620532787665 1.9985911407685242 11.350876412844073 H 0.0 **** 0.06
28896 C 94.48262670979915 10.624720513278618 106.38627311519465 C 0.0 **** -0.24
28897 H 95.18959909835877 9.818548219584528 106.18989300607475 H 0.0 **** 0.06
28898 H 93.46979309508242 10.277993352049151 106.17825324015939 H 0.0 **** 0.06
28899 H 94.71540403389372 11.474922423848625 105.74608858659371 H 0.0 **** 0.06
28900 H 94.55732712595238 10.92483856147831 107.43171411919477 H 0.0 **** 0.06
28901 C 90.93134590806707 40.063401490582066 15.647692768029657 C 0.0 **** -0.24
28902 H 90.72117230638415 40.15681248144091 14.581381651507627 H 0.0 **** 0.06
28903 H 91.3360519749397 39.0721073816959 15.85158942962181 H 0.0 **** 0.06
28904 H 90.0102637711275 40.20406899536886 16.212869898478573 H 0.0 **** 0.06
28905 H 91.65859851975823 40.81999454630861 15.940915227646798 H 0.0 **** 0.06
28906 C 13.013351808251059 18.44488452976975 57.38642934671134 C 0.0 **** -0.24
28907 H 13.574205936038311 19.29734763625325 57.00355972171212 H 0.0 **** 0.06
28908 H 12.314610824241981 18.78413554732859 58.15200018824049 H 0.0 **** 0.06
28909 H 13.702675675464661 17.720459828322717 57.819194038907796 H 0.0 **** 0.06
28910 H 12.460931131839857 17.977630334786653 56.57078677190185 H 0.0 **** 0.06
28911 C 37.43756313703156 34.67623750805984 109.53300651311113 C 0.0 **** -0.24
28912 H 37.20085450006792 33.670332996159914 109.87814698114926 H 0.0 **** 0.06
28913 H 38.49889919842258 34.87390516618541 109.68926340174815 H 0.0 **** 0.06
28914 H 36.847166453678255 35.40140449498898 110.09254420774712 H 0.0 **** 0.06
28915 H 37.20480206352357 34.75982551103331 108.47131531311243 H 0.0 **** 0.06
28916 C 27.66446653577278 27.111093791305905 3.703735519767008 C 0.0 **** -0.24
28917 H 27.162247624160443 28.060231238724214 3.5139061634656628 H 0.0 **** 0.06
28918 H 28.497226153538627 27.272235244097374 4.3886893430470195 H 0.0 **** 0.06
28919 H 28.03975079349722 26.704085974281327 2.7644468215827374 H 0.0 **** 0.06
28920 H 26.95841138698051 26.40920432626399 4.147704186903582 H 0.0 **** 0.06
28921 C 108.41730369520107 59.60317511444329 15.853469461358912 C 0.0 **** -0.24
28922 H 107.40139905744121 59.772721109273434 16.208878714838647 H 0.0 **** 0.06
28923 H 108.86533223845177 58.78118311315557 16.41293751416559 H 0.0 **** 0.06
28924 H 109.00788632982602 60.507146019268234 15.999676779441103 H 0.0 **** 0.06
28925 H 108.39357449219202 59.35113632321793 14.793215604003535 H 0.0 **** 0.06
28926 C 21.705176992640546 104.92792170755867 42.37381916660814 C 0.0 **** -0.24
28927 H 21.321685434249506 105.6424223428748 43.10305026314512 H 0.0 **** 0.06
28928 H 22.193375759462196 104.10341832232679 42.894681011492935 H 0.0 **** 0.06
28929 H 22.425906625615355 105.42567824363685 41.724053705114216 H 0.0 **** 0.06
28930 H 20.881320874125326 104.54352846396965 41.773948591929184 H 0.0 **** 0.06
28931 C 97.35482865916487 100.88680737111525 84.69386655056682 C 0.0 **** -0.24
28932 H 96.82594136111257 100.20798780140596 84.02511094221846 H 0.0 **** 0.06
28933 H 97.00499550122501 100.73603462591966 85.71537486117334 H 0.0 **** 0.06
28934 H 97.16343710986186 101.91648638229327 84.39249924679835 H 0.0 **** 0.06
28935 H 98.42461743986794 100.68597267693804 84.6430608714447 H 0.0 **** 0.06
28936 C 81.344583660735 83.29497590538625 73.07394396988695 C 0.0 **** -0.24
28937 H 82.35917119673749 83.35527067223236 73.46878137529387 H 0.0 **** 0.06
28938 H 81.37526427760758 82.92910492453376 72.04687383284448 H 0.0 **** 0.06
28939 H 80.88746092156487 84.28387625533082 73.09421026157409 H 0.0 **** 0.06
28940 H 80.75683056817093 82.61000807128639 73.68629052707428 H 0.0 **** 0.06
28941 C 58.4467148709968 22.45442576279615 106.51791023529553 C 0.0 **** -0.24
28942 H 57.73748918240782 21.856981531936782 105.94682873802297 H 0.0 **** 0.06
28943 H 58.30475002161801 23.509589289397383 106.28413517121105 H 0.0 **** 0.06
28944 H 59.462935370125535 22.157343692253534 106.25854946309971 H 0.0 **** 0.06
28945 H 58.282555649672744 22.2927838100494 107.58392550723015 H 0.0 **** 0.06
28946 C 8.046449326636775 17.811144566646927 10.477755002234218 C 0.0 **** -0.24
28947 H 7.8272583738636285 18.31629423190639 11.418469097101564 H 0.0 **** 0.06
28948 H 8.667849990717968 16.936295032072525 10.672915047991012 H 0.0 **** 0.06
28949 H 8.577597878656718 18.493025258301795 9.81467526751463 H 0.0 **** 0.06
28950 H 7.115128758925891 17.498238285481417 10.007267542694493 H 0.0 **** 0.06
28951 C 109.05582521856498 105.54720366820982 41.095897099302306 C 0.0 **** -0.24
28952 H 108.69230645228447 104.98089701588543 40.23777834257976 H 0.0 **** 0.06
28953 H 108.67754707751358 106.5684404774711 41.04351462644718 H 0.0 **** 0.06
28954 H 110.14545947565685 105.56220705002897 41.08652034473835 H 0.0 **** 0.06
28955 H 108.70599724124241 105.07671215471616 42.014461171963944 H 0.0 **** 0.06
28956 C 100.05483577925398 91.82687496606309 53.01496737365778 C 0.0 **** -0.24
28957 H 100.22904946268251 92.890858657315 52.857648862561746 H 0.0 **** 0.06
28958 H 100.68355980889632 91.25154954507497 52.33450747174339 H 0.0 **** 0.06
28959 H 99.00620793367182 91.5987501166569 52.82146903400286 H 0.0 **** 0.06
28960 H 100.29870546508012 91.56671613696915 54.04500078300424 H 0.0 **** 0.06
28961 C 25.134990617588414 17.048104851614426 75.61211680345372 C 0.0 **** -0.24
28962 H 24.939670524392284 15.976370881711333 75.65552474400289 H 0.0 **** 0.06
28963 H 24.18983576668191 17.587766197431222 75.55141417065602 H 0.0 **** 0.06
28964 H 25.73818760557458 17.27200342177693 74.73236020093009 H 0.0 **** 0.06
28965 H 25.67315791180218 17.35628959787681 76.50871091886358 H 0.0 **** 0.06
28966 C 88.3856470368469 54.592617033665846 88.00875494926714 C 0.0 **** -0.24
28967 H 88.75230529337009 55.50572732052433 88.47744266951202 H 0.0 **** 0.06
28968 H 87.78141548219384 54.848250475302905 87.13760416041782 H 0.0 **** 0.06
28969 H 87.77731741052725 54.0366068777829 88.72291928058638 H 0.0 **** 0.06
28970 H 89.23179199553016 53.978969382657965 87.69810534201369 H 0.0 **** 0.06
28971 C 14.242623314362618 18.055174629637104 82.25001711999772 C 0.0 **** -0.24
28972 H 13.358350880280568 18.274301280097305 82.8493665087467 H 0.0 **** 0.06
28973 H 14.243466162857885 17.000249944175017 81.97685227894374 H 0.0 **** 0.06
28974 H 15.138007070688559 18.2821288222864 82.82758315283314 H 0.0 **** 0.06
28975 H 14.228965568928402 18.665775907719297 81.34636426454955 H 0.0 **** 0.06
28976 C 97.78011038440829 46.947709201475284 66.72460999577225 C 0.0 **** -0.24
28977 H 97.06354180052602 46.176111265752496 67.0042631753767 H 0.0 **** 0.06
28978 H 98.7195800555491 46.48087723422348 66.42937027141264 H 0.0 **** 0.06
28979 H 97.95337058931005 47.60824482358244 67.57419486944065 H 0.0 **** 0.06
28980 H 97.38321713015284 47.52628484961459 65.8906161028483 H 0.0 **** 0.06
28981 C 8.240327358096863 59.343403235709104 64.97379461391836 C 0.0 **** -0.24
28982 H 7.461483884723377 58.8872288539863 64.36310924704964 H 0.0 **** 0.06
28983 H 8.1387537109878 59.00534531732558 66.00503100714013 H 0.0 **** 0.06
28984 H 8.143794142742689 60.42819456318961 64.93503958537872 H 0.0 **** 0.06
28985 H 9.219223150309439 59.05226385270004 64.59106126101761 H 0.0 **** 0.06
28986 C 54.22082776691994 5.2142846855670655 58.70643786465064 C 0.0 **** -0.24
28987 H 54.530937391585724 6.030449043390433 58.055202468898926 H 0.0 **** 0.06
28988 H 54.28861435615868 5.533448049200956 59.74621647765463 H 0.0 **** 0.06
28989 H 54.871480770451036 4.354220481775741 58.54639685133543 H 0.0 **** 0.06
28990 H 53.19118682104336 4.9381774355405526 58.477625267723795 H 0.0 **** 0.06
28991 C 22.66353307006841 94.20521339241814 9.279605868714157 C 0.0 **** -0.24
28992 H 23.455564247460586 94.23573416380052 10.027869834125255 H 0.0 **** 0.06
28993 H 22.68767040886712 95.11993976266271 8.686413679484218 H 0.0 **** 0.06
28994 H 21.69753590176316 94.11948429393809 9.776423559069798 H 0.0 **** 0.06
28995 H 22.813434041629932 93.34514518367864 8.626884454303735 H 0.0 **** 0.06
28996 C 58.47163110434977 96.52171607052247 72.68444301122118 C 0.0 **** -0.24
28997 H 59.01558296161673 97.12917004799596 71.96184433106562 H 0.0 **** 0.06
28998 H 58.90453125668725 95.52176127670785 72.71610911750652 H 0.0 **** 0.06
28999 H 57.42507438987349 96.4563739693372 72.38859800853649 H 0.0 **** 0.06
29000 H 58.54221522400255 96.97984360963653 73.6708389207206 H 0.0 **** 0.06
29001 C 79.189713195298 12.365356795364296 5.149936909702092 C 0.0 **** -0.24
29002 H 79.84896915882103 12.063442991928632 4.336223518423964 H 0.0 **** 0.06
29003 H 78.2923789173268 12.82760059633597 4.737886241475763 H 0.0 **** 0.06
29004 H 79.70672761279792 13.081024427076628 5.789537425377262 H 0.0 **** 0.06
29005 H 78.91195746497243 11.490134019698036 5.736180586210352 H 0.0 **** 0.06
29006 C 100.42587844449702 50.52809173325062 78.24223320830477 C 0.0 **** -0.24
29007 H 101.27820396839968 50.033235867875305 78.7063352113476 H 0.0 **** 0.06
29008 H 99.60107711620142 50.574322365300986 78.95397572206149 H 0.0 **** 0.06
29009 H 100.11433986031932 49.96540147576303 77.36134086267147 H 0.0 **** 0.06
29010 H 100.70803550978275 51.53769626869604 77.94566133720771 H 0.0 **** 0.06
29011 C 71.42299285550416 106.45139281972602 14.303026531793488 C 0.0 **** -0.24
29012 H 70.46210485574066 106.30943834414522 13.810371534709674 H 0.0 **** 0.06
29013 H 71.43878311133848 105.88913958615902 15.237380798962885 H 0.0 **** 0.06
29014 H 71.5704600521926 107.51027654236174 14.51366250647505 H 0.0 **** 0.06
29015 H 72.22105386106661 106.09546131871917 13.65117970878622 H 0.0 **** 0.06
29016 C 78.3212746488727 17.970135362902624 66.35835896955338 C 0.0 **** -0.24
29017 H 77.32623124569199 17.69448668587891 66.70718454149676 H 0.0 **** 0.06
29018 H 78.88479363908937 18.414946908664184 67.17934494109694 H 0.0 **** 0.06
29019 H 78.2344550515283 18.689789894565845 65.54429289241024 H 0.0 **** 0.06
29020 H 78.84049204424238 17.07989230580687 66.00112859605572 H 0.0 **** 0.06
29021 C 64.93789712504454 25.170661287931157 24.368283354247524 C 0.0 **** -0.24
29022 H 64.13393669800394 25.82310422952893 24.709225741804175 H 0.0 **** 0.06
29023 H 64.73471576382084 24.146995694809586 24.684090243254616 H 0.0 **** 0.06
29024 H 65.88227825748146 25.502807684048598 24.79954651597609 H 0.0 **** 0.06
29025 H 65.00112178415628 25.210416803411757 23.28083956017639 H 0.0 **** 0.06
29026 C 62.06605700559504 79.60424657195468 23.13637949662302 C 0.0 **** -0.24
29027 H 61.9284521586535 79.44951005811296 24.20641424762158 H 0.0 **** 0.06
29028 H 62.71939786376839 80.46080060660648 22.974473026016 H 0.0 **** 0.06
29029 H 61.09886410796065 79.79115074967231 22.669897358259192 H 0.0 **** 0.06
29030 H 62.51640025905226 78.71410386056341 22.695594018461122 H 0.0 **** 0.06
29031 C 47.67552646917497 58.65293845641446 51.73359106935436 C 0.0 **** -0.24
29032 H 46.61828508276372 58.66622187499024 51.47185841452597 H 0.0 **** 0.06
29033 H 48.071719488661074 57.645949393190676 51.59691239803553 H 0.0 **** 0.06
29034 H 47.79543082343565 58.95284830862968 52.77451415819925 H 0.0 **** 0.06
29035 H 48.21759371773783 59.34704250768266 51.091308787620676 H 0.0 **** 0.06
29036 C 20.493396362199746 26.896705096514154 20.554135028690155 C 0.0 **** -0.24
29037 H 20.416086748155994 27.982059347235918 20.61314524103642 H 0.0 **** 0.06
29038 H 19.8607644789533 26.531271260840924 19.745004697448792 H 0.0 **** 0.06
29039 H 20.166716803953815 26.457735874760374 21.49707424941181 H 0.0 **** 0.06
29040 H 21.528318858728486 26.616090403813075 20.361273344141466 H 0.0 **** 0.06
29041 C 64.55085239994435 20.313156107323778 98.85135321032756 C 0.0 **** -0.24
29042 H 63.83501394968101 20.67657113452043 99.58939775443194 H 0.0 **** 0.06
29043 H 65.49133861109487 20.85424614887893 98.96049610526657 H 0.0 **** 0.06
29044 H 64.15249533167753 20.47263075291744 97.84952421742507 H 0.0 **** 0.06
29045 H 64.72408642848495 19.247862968717527 99.0080070574101 H 0.0 **** 0.06
29046 C 21.23640763921327 63.4649141366354 2.5542881493144876 C 0.0 **** -0.24
29047 H 21.95761186200076 64.18659541784808 2.169444663797492 H 0.0 **** 0.06
29048 H 21.215879491909448 63.51854409372572 3.6437345177391762 H 0.0 **** 0.06
29049 H 21.528405159960528 62.46168087866286 2.2451695616465486 H 0.0 **** 0.06
29050 H 20.24726582718216 63.69366556000841 2.159719978255268 H 0.0 **** 0.06
29051 C 104.68460094924029 66.10176072255894 55.31333505325016 C 0.0 **** -0.24
29052 H 104.10372684740639 65.36331266405432 54.76009673186832 H 0.0 **** 0.06
29053 H 105.51807719995986 66.44166128251209 54.6992342682587 H 0.0 **** 0.06
29054 H 105.06723544198397 65.65026141683188 56.22840885429466 H 0.0 **** 0.06
29055 H 104.04793267183271 66.94924358621287 55.5644268497641 H 0.0 **** 0.06
29056 C 1.3445378589920551 86.14213758195109 14.066829253493154 C 0.0 **** -0.24
29057 H 2.4052274248196 85.89502532509042 14.01325607831643 H 0.0 **** 0.06
29058 H 1.1798405487918444 86.86011032214057 14.870104294632398 H 0.0 **** 0.06
29059 H 0.769869505930842 85.23663941483707 14.265540837675658 H 0.0 **** 0.06
29060 H 1.0237269363253176 86.57506784247455 13.120095641050625 H 0.0 **** 0.06
29061 C 90.85870988162881 18.025586029717488 18.756053583324558 C 0.0 **** -0.24
29062 H 90.25121961531687 17.623805896096087 19.567090679483215 H 0.0 **** 0.06
29063 H 91.891401433809 17.699386088381402 18.880928068187586 H 0.0 **** 0.06
29064 H 90.81679873454416 19.114283035329777 18.774764880824023 H 0.0 **** 0.06
29065 H 90.47581885875076 17.663514279116384 17.801358120365933 H 0.0 **** 0.06
29066 C 92.86030284133527 5.7207561707115815 101.8180135424389 C 0.0 **** -0.24
29067 H 92.87151810034888 4.939430773037259 102.57835145040444 H 0.0 **** 0.06
29068 H 92.05569350839343 6.425356703953483 102.03362635381686 H 0.0 **** 0.06
29069 H 92.69797866249363 5.27173629419778 100.83818505168615 H 0.0 **** 0.06
29070 H 93.81484238929323 6.246022460759008 101.82343466665638 H 0.0 **** 0.06
29071 C 27.43521505657523 52.82794305080967 68.88070872266876 C 0.0 **** -0.24
29072 H 27.609658486543594 53.40211761517181 67.96966315727822 H 0.0 **** 0.06
29073 H 27.807728359243384 51.81206376512906 68.74501408951788 H 0.0 **** 0.06
29074 H 26.366222356873266 52.798682590278275 69.09227032011765 H 0.0 **** 0.06
29075 H 27.958459522542796 53.299338521374324 69.71237234500248 H 0.0 **** 0.06
29076 C 17.86573018489827 36.80884498518799 48.246520425681865 C 0.0 **** -0.24
29077 H 18.794498530185933 36.86783783689492 48.81427925153571 H 0.0 **** 0.06
29078 H 17.276136872123175 37.709274188475945 48.41939855476636 H 0.0 **** 0.06
29079 H 17.297696098360603 35.93542510268293 48.568759329530906 H 0.0 **** 0.06
29080 H 18.094076932476895 36.72104635709735 47.18487360599562 H 0.0 **** 0.06
29081 C 93.87082947896386 26.05794498786232 17.468552995458907 C 0.0 **** -0.24
29082 H 93.46319050424304 26.98883439951488 17.862803215034607 H 0.0 **** 0.06
29083 H 93.07891705603785 25.310401754480125 17.413093663313962 H 0.0 **** 0.06
29084 H 94.6627512470831 25.700876133303755 18.127150462658822 H 0.0 **** 0.06
29085 H 94.27743048557717 26.231799572541224 16.472551970535577 H 0.0 **** 0.06
29086 C 103.92347568758966 91.0824103602222 26.56049915731296 C 0.0 **** -0.24
29087 H 103.8589700475869 90.47794226322138 27.464937202795028 H 0.0 **** 0.06
29088 H 104.55673009106034 91.94975936651267 26.747812903311285 H 0.0 **** 0.06
29089 H 102.92528122242412 91.41573720005015 26.27478436613912 H 0.0 **** 0.06
29090 H 104.35242238381272 90.48601194688625 25.7553075505471 H 0.0 **** 0.06
29091 C 50.09979713965407 51.06011490607989 10.580951096409962 C 0.0 **** -0.24
29092 H 50.2319602477387 50.27372113755041 11.324132515636677 H 0.0 **** 0.06
29093 H 50.398415960513375 52.017738611745585 11.008763622943107 H 0.0 **** 0.06
29094 H 49.05273074779376 51.10587487504884 10.282056727740866 H 0.0 **** 0.06
29095 H 50.71796177273194 50.84235527570854 9.709785720822836 H 0.0 **** 0.06
29096 C 51.84919913720222 11.397498849562037 94.68063694410037 C 0.0 **** -0.24
29097 H 51.41501316392521 10.848723318649384 95.51583678690808 H 0.0 **** 0.06
29098 H 52.728603504450064 11.94351065322186 95.02254474790492 H 0.0 **** 0.06
29099 H 51.11424121552653 12.100077066858542 94.28743015427442 H 0.0 **** 0.06
29100 H 52.13849388912547 10.696897284760464 93.89630860938979 H 0.0 **** 0.06
29101 C 59.68443209654794 104.21635718384356 54.559762034372035 C 0.0 **** -0.24
29102 H 60.65859701697474 104.69906877747327 54.47992405870537 H 0.0 **** 0.06
29103 H 59.18340752162038 104.55847502641849 55.46514902635347 H 0.0 **** 0.06
29104 H 59.817739679299166 103.13562962666839 54.60341837868614 H 0.0 **** 0.06
29105 H 59.08057696018054 104.47310873598849 53.68931187199117 H 0.0 **** 0.06
29106 C 34.94035734281252 16.032973790409812 16.06314397314596 C 0.0 **** -0.24
29107 H 35.392993055172866 15.124187980583685 15.665670503015757 H 0.0 **** 0.06
29108 H 34.48276976305294 16.597014586011227 15.24920506491975 H 0.0 **** 0.06
29109 H 35.70795358447836 16.641609129255585 16.540687559559878 H 0.0 **** 0.06
29110 H 34.17843199806089 15.768582827197207 16.796530678889365 H 0.0 **** 0.06
29111 C 38.033322875449386 10.374096442237073 20.79875085096171 C 0.0 **** -0.24
29112 H 38.473056830280385 11.208417617006837 20.251741602330867 H 0.0 **** 0.06
29113 H 37.365445675019984 9.819232564034317 20.13866444623119 H 0.0 **** 0.06
29114 H 37.47091850420051 10.754009893833079 21.651003688803797 H 0.0 **** 0.06
29115 H 38.82673680603986 9.713498504939004 21.15152510514443 H 0.0 **** 0.06
29116 C 28.329675307870048 2.9996075647800353 17.18166633941753 C 0.0 **** -0.24
29117 H 27.285862837648295 3.1917931137432447 17.427611554746562 H 0.0 **** 0.06
29118 H 28.799971183432575 3.923845870536624 16.847217292869228 H 0.0 **** 0.06
29119 H 28.385130886041196 2.254980858492246 16.386554591336278 H 0.0 **** 0.06
29120 H 28.84830505025832 2.6268191893220347 18.064448780718383 H 0.0 **** 0.06
29121 C 36.88877650412286 87.6422100579851 102.8946404614414 C 0.0 **** -0.24
29122 H 36.263401110561745 86.77152928841855 102.69741856446488 H 0.0 **** 0.06
29123 H 37.437985043086115 87.49237059042247 103.82453454779248 H 0.0 **** 0.06
29124 H 36.26007174394667 88.52886286613636 102.98240740490529 H 0.0 **** 0.06
29125 H 37.59248240232051 87.77685548399586 102.07401179081526 H 0.0 **** 0.06
29126 C 38.218197543072336 59.607081211756764 1.6635500792823308 C 0.0 **** -0.24
29127 H 38.15538585445941 60.35215895867823 0.8707508095515664 H 0.0 **** 0.06
29128 H 37.30777676778712 59.00709839518151 1.6706588332581873 H 0.0 **** 0.06
29129 H 38.33027914836018 60.108997962142865 2.625070332541995 H 0.0 **** 0.06
29130 H 39.078349007479716 58.962141051521414 1.488563141478508 H 0.0 **** 0.06
29131 C 49.50990507717913 78.50577431177396 5.334367417726014 C 0.0 **** -0.24
29132 H 50.57172732641396 78.43973623398875 5.570503652018488 H 0.0 **** 0.06
29133 H 49.05835977890388 77.51644680337881 5.413410621557034 H 0.0 **** 0.06
29134 H 49.38641218347385 78.88157472225342 4.31885207936395 H 0.0 **** 0.06
29135 H 49.023121019924986 79.18533948747469 6.034703317964514 H 0.0 **** 0.06
29136 C 101.15171701284322 33.95487169423474 73.30989422891467 C 0.0 **** -0.24
29137 H 101.14188570943843 33.08403957422621 73.96510076860072 H 0.0 **** 0.06
29138 H 100.21029332630982 34.00753135193561 72.76194594167373 H 0.0 **** 0.06
29139 H 101.97800466270202 33.86961859191092 72.60440328393439 H 0.0 **** 0.06
29140 H 101.27540528556223 34.85763420506646 73.90716541482742 H 0.0 **** 0.06
29141 C 52.74986435677806 10.585207116462385 81.63700545876378 C 0.0 **** -0.24
29142 H 53.60591601745949 11.123407773065594 81.22976046834486 H 0.0 **** 0.06
29143 H 53.051762483345385 9.573574157584659 81.90739428765755 H 0.0 **** 0.06
29144 H 51.959920936705316 10.540126377502133 80.8873135338255 H 0.0 **** 0.06
29145 H 52.38287571939088 11.105113058765966 82.52181447939546 H 0.0 **** 0.06
29146 C 86.94038384686391 7.9549173783941 3.6509642446376915 C 0.0 **** -0.24
29147 H 87.33893063222894 6.995394265511123 3.9797022768139954 H 0.0 **** 0.06
29148 H 87.43030557721629 8.252835391948821 2.723368172161159 H 0.0 **** 0.06
29149 H 87.1271280508958 8.70760638555872 4.4178532815620315 H 0.0 **** 0.06
29150 H 85.86725643868036 7.864927541799759 3.4836076225908386 H 0.0 **** 0.06
29151 C 20.773003819686323 73.1646947590533 55.90884417069331 C 0.0 **** -0.24
29152 H 21.740927201592967 73.16215440591634 55.40737956685602 H 0.0 **** 0.06
29153 H 20.723450494609494 72.32692922627132 56.605583235987794 H 0.0 **** 0.06
29154 H 19.978894858700585 73.0691508341609 55.16863193254668 H 0.0 **** 0.06
29155 H 20.650641327334597 74.09999741487496 56.45522978144597 H 0.0 **** 0.06
29156 C 74.05113766024333 15.468721839551336 70.17477745104904 C 0.0 **** -0.24
29157 H 74.45841815544611 16.350725299044456 70.66715765679585 H 0.0 **** 0.06
29158 H 73.15724108249519 15.745802925363904 69.61402086299988 H 0.0 **** 0.06
29159 H 73.79237014395926 14.720822244779015 70.92422953527814 H 0.0 **** 0.06
29160 H 74.79473906852814 15.05708405186391 69.4920834065587 H 0.0 **** 0.06
29161 C 86.83684851956463 32.24213859832505 58.96846757902694 C 0.0 **** -0.24
29162 H 85.82625001359435 32.41144412476198 59.33842852219213 H 0.0 **** 0.06
29163 H 87.45377329820411 33.11534008435022 59.186476683465756 H 0.0 **** 0.06
29164 H 86.80742550326306 32.077973643047066 57.892082455763855 H 0.0 **** 0.06
29165 H 87.26081430343626 31.365938067294785 59.45879552705843 H 0.0 **** 0.06
29166 C 42.742281373135654 83.52592215550679 44.50983694539341 C 0.0 **** -0.24
29167 H 43.33004721064657 84.2768124550745 43.982448180849026 H 0.0 **** 0.06
29168 H 41.685561480847554 83.66603921412545 44.279656145923745 H 0.0 **** 0.06
29169 H 42.89727568494408 83.62944580688327 45.58359504671122 H 0.0 **** 0.06
29170 H 43.05492831072506 82.53083136184053 44.19165755875549 H 0.0 **** 0.06
29171 C 70.49784822030068 17.835088164600393 60.429360751570925 C 0.0 **** -0.24
29172 H 70.36458945044498 18.91529159628851 60.36599250209076 H 0.0 **** 0.06
29173 H 69.78766194590605 17.423100996749326 61.14611097233097 H 0.0 **** 0.06
29174 H 71.51401457434872 17.613625650755694 60.75580089028625 H 0.0 **** 0.06
29175 H 70.32604053289623 17.390310409798133 59.44902777479933 H 0.0 **** 0.06
29176 C 103.14588686895424 2.3686445464857666 30.09962457596754 C 0.0 **** -0.24
29177 H 103.27839316007675 3.29287476098291 29.537171504798152 H 0.0 **** 0.06
29178 H 102.13719105806429 2.3360919829220768 30.512503491985655 H 0.0 **** 0.06
29179 H 103.87259689509271 2.3296631448908203 30.911246941494 H 0.0 **** 0.06
29180 H 103.29510497302086 1.5163474064684799 29.43624501802742 H 0.0 **** 0.06
29181 C 26.238472557481995 90.6176516836445 108.02477645524719 C 0.0 **** -0.24
29182 H 27.032755709887805 90.30410727482725 107.34726332131589 H 0.0 **** 0.06
29183 H 25.284277646750134 90.23026993498529 107.6690402231283 H 0.0 **** 0.06
29184 H 26.1995864560804 91.70669281130047 108.05921751744776 H 0.0 **** 0.06
29185 H 26.439286505076875 90.22857781360727 109.02345768232429 H 0.0 **** 0.06
29186 C 76.32263282865955 64.05821585176393 83.08427028116995 C 0.0 **** -0.24
29187 H 75.9120287302824 64.30170097963922 82.10475811090271 H 0.0 **** 0.06
29188 H 77.29926629644979 63.58781987846001 82.96260003118823 H 0.0 **** 0.06
29189 H 75.65108521708726 63.372874015417395 83.59985068840447 H 0.0 **** 0.06
29190 H 76.429447498049 64.97103288457365 83.6699020168956 H 0.0 **** 0.06
29191 C 96.33679524510075 91.7445773005019 54.372750335156226 C 0.0 **** -0.24
29192 H 96.33286732591691 90.6726884506959 54.574341016072204 H 0.0 **** 0.06
29193 H 95.3486748282714 92.15651615848 54.579192365187474 H 0.0 **** 0.06
29194 H 96.591550056879 91.91570780670698 53.326957723102105 H 0.0 **** 0.06
29195 H 97.0744163215118 92.23061100948489 55.010874316551146 H 0.0 **** 0.06
29196 C 86.9310732051361 54.27021091466676 40.07150648984771 C 0.0 **** -0.24
29197 H 86.24759410514469 53.91999275887209 40.84499626068208 H 0.0 **** 0.06
29198 H 86.6203657352093 55.258745367293244 39.73220661487443 H 0.0 **** 0.06
29199 H 86.91364918436693 53.575660577675926 39.2312540711053 H 0.0 **** 0.06
29200 H 87.94099603142968 54.32508086331559 40.47702961173292 H 0.0 **** 0.06
29201 C 17.03316355758244 74.38632470245682 34.71855748194065 C 0.0 **** -0.24
29202 H 16.13577194011492 73.7710524563739 34.65046760373727 H 0.0 **** 0.06
29203 H 17.669638272638565 74.01202325131356 35.520436044732946 H 0.0 **** 0.06
29204 H 16.75120194290605 75.41800696313689 34.92894337900165 H 0.0 **** 0.06
29205 H 17.57453395675566 74.34300740825205 33.773868363107894 H 0.0 **** 0.06
29206 C 7.74732736515881 96.82453499080586 95.89902435129146 C 0.0 **** -0.24
29207 H 8.213734694631228 96.72162994282243 94.9200542095423 H 0.0 **** 0.06
29208 H 6.670609334123071 96.67827056765489 95.8056116658293 H 0.0 **** 0.06
29209 H 7.945563114438926 97.82127384480779 96.29335177456967 H 0.0 **** 0.06
29210 H 8.158119944171688 96.0770365729883 96.57767185475241 H 0.0 **** 0.06
29211 C 38.78515079836427 99.27694354234563 39.400051816057925 C 0.0 **** -0.24
29212 H 38.533928662594995 99.63105923009226 38.399374810805895 H 0.0 **** 0.06
29213 H 39.75407145875168 98.77948337933191 39.376073882338645 H 0.0 **** 0.06
29214 H 38.02304008038459 98.57505032307546 39.73831209295868 H 0.0 **** 0.06
29215 H 38.828039904112586 100.12439895682212 40.08478442582513 H 0.0 **** 0.06
29216 C 76.24156497933517 58.01147601352914 94.57651828386474 C 0.0 **** -0.24
29217 H 77.05348941598349 57.88087642581534 95.29105537715299 H 0.0 **** 0.06
29218 H 75.30316943569076 57.69472239641711 95.03117176683821 H 0.0 **** 0.06
29219 H 76.43776174885036 57.40840089119174 93.68938179924106 H 0.0 **** 0.06
29220 H 76.17248222480352 59.06226879070085 94.29379047488436 H 0.0 **** 0.06
29221 C 36.20189546661124 54.08933414691874 97.69650039974493 C 0.0 **** -0.24
29222 H 36.56251358919362 54.98655613583177 97.19236630034717 H 0.0 **** 0.06
29223 H 35.34244776961292 53.69129892018568 97.15733673094923 H 0.0 **** 0.06
29224 H 35.908748949758255 54.33905194958967 98.71553471406423 H 0.0 **** 0.06
29225 H 36.99577893197341 53.342178104147564 97.71894586295093 H 0.0 **** 0.06
29226 C 100.91161215699165 70.52923572188132 38.300526680563536 C 0.0 **** -0.24
29227 H 100.90496012810793 71.41670612725898 38.933945918780296 H 0.0 **** 0.06
29228 H 100.31587092411222 69.74540821688265 38.76884250826245 H 0.0 **** 0.06
29229 H 101.93711155871826 70.18106001043333 38.17370177438494 H 0.0 **** 0.06
29230 H 100.48826868991574 70.77532662915917 37.32720279311613 H 0.0 **** 0.06
29231 C 93.77553777384782 42.15373433288877 90.5731398333337 C 0.0 **** -0.24
29232 H 94.00141565444221 42.28593769643025 89.51502343266088 H 0.0 **** 0.06
29233 H 94.59841568646829 42.54651830977731 91.17087353742153 H 0.0 **** 0.06
29234 H 93.64562466135317 41.092912136216235 90.78660106620998 H 0.0 **** 0.06
29235 H 92.8589809454445 42.68929439760478 90.81922483659469 H 0.0 **** 0.06
29236 C 31.847771478255567 27.740901642994658 85.257865634176 C 0.0 **** -0.24
29237 H 31.5712796982298 27.089039151286528 86.08648644310185 H 0.0 **** 0.06
29238 H 32.109347680611165 27.134137151683234 84.39118946254607 H 0.0 **** 0.06
29239 H 32.70327832236583 28.35075524801954 85.54714483044373 H 0.0 **** 0.06
29240 H 31.00742497355853 28.388120020050906 85.00851859603233 H 0.0 **** 0.06
29241 C 31.960092260167656 97.38571258510774 45.7286934224399 C 0.0 **** -0.24
29242 H 32.09020278491727 98.45131587678021 45.53867036719777 H 0.0 **** 0.06
29243 H 32.67566931210824 96.81963575801574 45.13196283364965 H 0.0 **** 0.06
29244 H 30.946492564462837 97.0896873274917 45.45817434422628 H 0.0 **** 0.06
29245 H 32.12766620624226 97.18234191436004 46.786898158046824 H 0.0 **** 0.06
29246 C 49.85612497467778 63.338578169135076 63.08927111004948 C 0.0 **** -0.24
29247 H 49.14630407738369 63.48844313039302 63.902404321878294 H 0.0 **** 0.06
29248 H 49.93377640158957 62.2747221120909 62.86568131886844 H 0.0 **** 0.06
29249 H 50.833110892397826 63.72006234677957 63.38502129560595 H 0.0 **** 0.06
29250 H 49.511215540352765 63.87231643302397 62.203288127196174 H 0.0 **** 0.06
29251 C 24.795746241182027 108.6614641355734 60.54727067480114 C 0.0 **** -0.24
29252 H 23.91932148293688 109.2224147204596 60.221536140640964 H 0.0 **** 0.06
29253 H 25.684371330137225 109.28266523124316 60.442832024785986 H 0.0 **** 0.06
29254 H 24.90202452487762 107.76681986970303 59.932203588334986 H 0.0 **** 0.06
29255 H 24.674227503182735 108.37197358062502 61.59055501969712 H 0.0 **** 0.06
29256 C 28.57752996031732 106.47182526010769 98.87950103587815 C 0.0 **** -0.24
29257 H 27.625710899232246 106.51542684509667 99.40933050252174 H 0.0 **** 0.06
29258 H 28.839700235409993 107.46801378225172 98.52187401775943 H 0.0 **** 0.06
29259 H 28.490567531742414 105.79252195095094 98.03238809189823 H 0.0 **** 0.06
29260 H 29.35358337156262 106.1132256219498 99.5558702227165 H 0.0 **** 0.06
29261 C 93.3581110902785 94.03437336485655 76.20038955794212 C 0.0 **** -0.24
29262 H 93.01117083574302 94.3855996581845 77.17193286128702 H 0.0 **** 0.06
29263 H 94.34096808319106 94.457302862011 75.99099599073563 H 0.0 **** 0.06
29264 H 92.65488226460228 94.34784770033531 75.42960108885762 H 0.0 **** 0.06
29265 H 93.42443320103251 92.94683299723096 76.21044675432458 H 0.0 **** 0.06
29266 C 34.5221810151906 17.078583837918796 38.64831299026599 C 0.0 **** -0.24
29267 H 34.0309479183332 16.473035139371746 37.88573594370297 H 0.0 **** 0.06
29268 H 33.77010294129053 17.499438172176497 39.31669321983074 H 0.0 **** 0.06
29269 H 35.07666052487349 17.88481322241168 38.17001347827215 H 0.0 **** 0.06
29270 H 35.20932664599479 16.45419539971163 39.22068341202319 H 0.0 **** 0.06
29271 C 16.494102548756516 3.7005367302398895 24.134125612255517 C 0.0 **** -0.24
29272 H 16.55891840551989 4.774456193204401 23.955988554596487 H 0.0 **** 0.06
29273 H 15.541195216362723 3.467547500653268 24.608745957638334 H 0.0 **** 0.06
29274 H 17.311034435121485 3.3915709585508296 24.78554733662257 H 0.0 **** 0.06
29275 H 16.566149578859182 3.170742660620448 23.184638752068977 H 0.0 **** 0.06
29276 C 74.2776291319681 82.83974816124476 39.70525887173932 C 0.0 **** -0.24
29277 H 73.59326989897073 82.00191947860117 39.83694934029211 H 0.0 **** 0.06
29278 H 73.77312422066058 83.76664766911409 39.978800421510016 H 0.0 **** 0.06
29279 H 74.59244752181391 82.89096158299441 38.663234686463795 H 0.0 **** 0.06
29280 H 75.1514160668878 82.69873391792055 40.34268362649044 H 0.0 **** 0.06
29281 C 45.6404057768913 99.06126413113526 43.26470052837743 C 0.0 **** -0.24
29282 H 45.63446198461173 98.7912146348133 42.20918844747155 H 0.0 **** 0.06
29283 H 45.110411433793615 100.0056185195518 43.40026157003001 H 0.0 **** 0.06
29284 H 46.6693668480338 99.16924693853528 43.60683304607073 H 0.0 **** 0.06
29285 H 45.14581065586992 98.28085473083924 43.8425419173721 H 0.0 **** 0.06
29286 C 42.61152801905939 6.487227963038382 67.67083067906468 C 0.0 **** -0.24
29287 H 42.434712523421524 6.347958685211752 68.7372397007123 H 0.0 **** 0.06
29288 H 41.661866015829446 6.455687936641777 67.13747045256977 H 0.0 **** 0.06
29289 H 43.2613321281998 5.692696066628843 67.30441215725881 H 0.0 **** 0.06
29290 H 43.09075413739697 7.452148923131444 67.50571942528592 H 0.0 **** 0.06
29291 C 68.32104210322296 70.81722981447649 57.76631720708315 C 0.0 **** -0.24
29292 H 68.6923578656677 71.50285315850329 58.527444040608884 H 0.0 **** 0.06
29293 H 67.8489657182034 71.38506772057133 56.96468583740909 H 0.0 **** 0.06
29294 H 67.59161677758829 70.14090845037657 58.21155079792533 H 0.0 **** 0.06
29295 H 69.15254020296373 70.2395914499441 57.361761000955084 H 0.0 **** 0.06
29296 C 38.7642529427377 16.031439618273737 55.480969333605174 C 0.0 **** -0.24
29297 H 37.735867346298676 15.880742491078536 55.15481257222547 H 0.0 **** 0.06
29298 H 39.43930118372404 15.878197926811026 54.63797538086112 H 0.0 **** 0.06
29299 H 39.00371892277775 15.320073777221438 56.27154036903309 H 0.0 **** 0.06
29300 H 38.88042190778603 17.047304708943642 55.8589108146183 H 0.0 **** 0.06
29301 C 24.858648389497233 39.315544782236316 19.903825344099772 C 0.0 **** -0.24
29302 H 25.27599510575149 40.285102241543655 20.175494096384256 H 0.0 **** 0.06
29303 H 25.2909510695917 38.54329084966986 20.540556173220125 H 0.0 **** 0.06
29304 H 25.090432922153326 39.09988728329125 18.860864831057114 H 0.0 **** 0.06
29305 H 23.776695853945483 39.33565465032842 20.040013596897808 H 0.0 **** 0.06
29306 C 10.54143125400609 83.37502748137044 76.02046764012152 C 0.0 **** -0.24
29307 H 10.684632701475842 82.40709483864103 75.54056703769288 H 0.0 **** 0.06
29308 H 9.95011084305152 83.24779043754752 76.92758383975786 H 0.0 **** 0.06
29309 H 10.02022911510991 84.04572568334449 75.33757006182077 H 0.0 **** 0.06
29310 H 11.51210669978525 83.80119278440478 76.2766945805983 H 0.0 **** 0.06
29311 C 69.09377013445419 65.75465079609626 29.731179677801066 C 0.0 **** -0.24
29312 H 69.7024665003647 65.20481892595654 30.448456104894248 H 0.0 **** 0.06
29313 H 68.24176704048338 66.20133241796384 30.244495526694237 H 0.0 **** 0.06
29314 H 68.73741687509164 65.07262107646744 28.959355431199867 H 0.0 **** 0.06
29315 H 69.69390959394548 66.54064879621046 29.272729420944927 H 0.0 **** 0.06
29316 C 63.992883174603435 14.932726077801277 10.530269437845448 C 0.0 **** -0.24
29317 H 63.61941324012673 15.280573778330677 11.493152101905054 H 0.0 **** 0.06
29318 H 64.10781863432885 13.848832164901864 10.5559738821633 H 0.0 **** 0.06
29319 H 64.95874235397099 15.395965516928726 10.3270868513099 H 0.0 **** 0.06
29320 H 63.286372655405046 15.206076554654032 9.747110308122387 H 0.0 **** 0.06
29321 C 37.41802455094674 66.41363011258494 17.509434540024017 C 0.0 **** -0.24
29322 H 36.66061806103457 66.23278775331987 16.74728280255762 H 0.0 **** 0.06
29323 H 37.25497570959009 65.73833579385786 18.35017741915695 H 0.0 **** 0.06
29324 H 37.348354238512066 67.44535039924072 17.85230929795935 H 0.0 **** 0.06
29325 H 38.40702964335509 66.23609499485748 17.08700102766481 H 0.0 **** 0.06
29326 C 10.536123579254877 27.675606990220132 105.43747530071713 C 0.0 **** -0.24
29327 H 10.297956740897064 28.733275776978928 105.55272800595675 H 0.0 **** 0.06
29328 H 10.286656541494253 27.145345603205044 106.35703332836165 H 0.0 **** 0.06
29329 H 11.60049232829492 27.56317356977337 105.2292547595081 H 0.0 **** 0.06
29330 H 9.95863822111339 27.261292798737742 104.61092385851059 H 0.0 **** 0.06
29331 C 82.58155060144925 85.5493968617186 97.13450120068735 C 0.0 **** -0.24
29332 H 81.52046228595115 85.39818938164323 97.33257377116514 H 0.0 **** 0.06
29333 H 82.76808976516466 86.60745579739981 96.94542082572276 H 0.0 **** 0.06
29334 H 82.87449018696256 84.96640629525407 96.26114773352793 H 0.0 **** 0.06
29335 H 83.16222799866209 85.22694461482926 97.99924579529821 H 0.0 **** 0.06
29336 C 24.110781174518507 56.42961308912484 79.4352552689645 C 0.0 **** -0.24
29337 H 23.67564408646507 55.436562416973516 79.31862770066014 H 0.0 **** 0.06
29338 H 24.83282654573273 56.41476112203867 80.2517911065986 H 0.0 **** 0.06
29339 H 23.322532138969677 57.14731592312404 79.66038837319665 H 0.0 **** 0.06
29340 H 24.611845424563626 56.71761168555912 78.51125241527872 H 0.0 **** 0.06
29341 C 70.9094557122466 33.752861163223145 27.232658975279662 C 0.0 **** -0.24
29342 H 70.53169530329757 32.82527189225729 26.801184595707056 H 0.0 **** 0.06
29343 H 71.39840787788376 33.537787535317165 28.18306257490039 H 0.0 **** 0.06
29344 H 70.08051171178607 34.44037473559487 27.39663069917006 H 0.0 **** 0.06
29345 H 71.62757993002191 34.20523322769091 26.54829210282685 H 0.0 **** 0.06
29346 C 30.718761955831695 35.74117029256587 71.3770099236325 C 0.0 **** -0.24
29347 H 30.125057874984144 36.61706544835042 71.63749788010392 H 0.0 **** 0.06
29348 H 30.092630427812082 35.02183446131779 70.84887154185202 H 0.0 **** 0.06
29349 H 31.10986865487604 35.28365038606956 72.28575628470824 H 0.0 **** 0.06
29350 H 31.547490865654503 36.04213087452618 70.73591398786584 H 0.0 **** 0.06
29351 C 70.60470110513069 108.13751765156508 98.08205295619348 C 0.0 **** -0.24
29352 H 69.71732145218255 108.69001624571607 97.77460625407389 H 0.0 **** 0.06
29353 H 70.60941233104069 107.15918956018841 97.6007829214717 H 0.0 **** 0.06
29354 H 70.59643496468954 108.01024527349708 99.16503094574222 H 0.0 **** 0.06
29355 H 71.49723193380254 108.69149194136611 97.78862299243679 H 0.0 **** 0.06
29356 C 88.58731515001915 58.22164804847772 95.62583304138091 C 0.0 **** -0.24
29357 H 89.18817731786912 59.10322647905827 95.4032932216982 H 0.0 **** 0.06
29358 H 87.73398253933527 58.510024609258075 96.24084145670325 H 0.0 **** 0.06
29359 H 89.19455481870737 57.49529623629527 96.16505270220644 H 0.0 **** 0.06
29360 H 88.23262583606082 57.78008679958055 94.69505274006141 H 0.0 **** 0.06
29361 C 77.84913027059588 94.81267893111487 101.98901545235486 C 0.0 **** -0.24
29362 H 78.19505513303017 95.55662608158144 102.70625213770573 H 0.0 **** 0.06
29363 H 78.50913380940705 94.8111993058793 101.12104192365949 H 0.0 **** 0.06
29364 H 76.83433908552553 95.05414087651268 101.67504925596761 H 0.0 **** 0.06
29365 H 77.85939278842949 93.82681846051166 102.45553850025166 H 0.0 **** 0.06
29366 C 90.21793542859973 50.488872204047254 20.089477314406544 C 0.0 **** -0.24
29367 H 91.03625300254339 49.83066663932422 19.798639534053038 H 0.0 **** 0.06
29368 H 89.35271686851894 49.887979534691254 20.37515871808826 H 0.0 **** 0.06
29369 H 89.95254487828959 51.13191243650439 19.250814725390097 H 0.0 **** 0.06
29370 H 90.52945705858866 51.10291921206425 20.934463947018937 H 0.0 **** 0.06
29371 C 75.46060379986073 67.27513239199254 32.074419963794384 C 0.0 **** -0.24
29372 H 76.4810247060013 67.01457827346195 31.794704834508934 H 0.0 **** 0.06
29373 H 74.86184622945301 66.36765665847338 32.14971941922454 H 0.0 **** 0.06
29374 H 75.03326735264285 67.93137820727333 31.316334317237676 H 0.0 **** 0.06
29375 H 75.46725585756782 67.78787024399526 33.03655796631847 H 0.0 **** 0.06
29376 C 57.15551848287716 41.07725736080036 4.428697539469965 C 0.0 **** -0.24
29377 H 57.58441388797846 41.18306256660847 5.42513712621674 H 0.0 **** 0.06
29378 H 56.068426410483234 41.050643609106444 4.502727199231771 H 0.0 **** 0.06
29379 H 57.51215257847776 40.15089034985773 3.9773426969061205 H 0.0 **** 0.06
29380 H 57.458055275774626 41.92204649049643 3.811670335466289 H 0.0 **** 0.06
29381 C 33.45124536209412 47.68673086450974 76.32750078385612 C 0.0 **** -0.24
29382 H 34.37535727799648 47.40206025356173 76.82985886120191 H 0.0 **** 0.06
29383 H 32.91417524234401 46.78808003759116 76.02115730285817 H 0.0 **** 0.06
29384 H 33.68576316885541 48.28671022902836 75.44892866821915 H 0.0 **** 0.06
29385 H 32.83112564714377 48.26664573573339 77.0096320380856 H 0.0 **** 0.06
29386 C 5.552778644930044 36.16698960547234 31.63724568257259 C 0.0 **** -0.24
29387 H 4.9285966361304645 37.00098936521995 31.958393769120825 H 0.0 **** 0.06
29388 H 5.4411941841795795 35.33941612517134 32.33902626900172 H 0.0 **** 0.06
29389 H 6.595598307144371 36.482440248758934 31.611132748100424 H 0.0 **** 0.06
29390 H 5.245623627397748 35.84489081074594 30.64241503920389 H 0.0 **** 0.06
29391 C 63.10202244401202 93.99218707636038 41.81844960302024 C 0.0 **** -0.24
29392 H 63.44232443269527 93.6834204248445 40.829772405639005 H 0.0 **** 0.06
29393 H 63.93919107347773 94.4143516530523 42.37522933296867 H 0.0 **** 0.06
29394 H 62.70712535986786 93.12886128346166 42.352697356302286 H 0.0 **** 0.06
29395 H 62.31886500040997 94.74431225395823 41.714141940147584 H 0.0 **** 0.06
29396 C 24.769231307785564 58.5965676443485 10.274230759603554 C 0.0 **** -0.24
29397 H 24.757085306205123 59.6544726833463 10.536782227783178 H 0.0 **** 0.06
29398 H 25.800871836933243 58.248076320307256 10.217950049526607 H 0.0 **** 0.06
29399 H 24.28518116802107 58.45657364038812 9.307888695207396 H 0.0 **** 0.06
29400 H 24.234685803333637 58.028172545101775 11.03467926422357 H 0.0 **** 0.06
29401 C 53.76958563129352 74.90719422608267 1.9957867446064057 C 0.0 **** -0.24
29402 H 52.89811358572621 74.33209931066328 2.3088333545695576 H 0.0 **** 0.06
29403 H 53.97438370535261 74.7111284397885 0.9432047620229866 H 0.0 **** 0.06
29404 H 54.631845818093296 74.61483709483105 2.5943938790696848 H 0.0 **** 0.06
29405 H 53.57277297998229 75.97011704661409 2.1363382680355585 H 0.0 **** 0.06
29406 C 100.81795386964743 34.977796209270025 18.248921787657537 C 0.0 **** -0.24
29407 H 100.84389797604116 35.731380514576074 19.034967192579472 H 0.0 **** 0.06
29408 H 101.82477592113086 34.82143601604099 17.86176586777016 H 0.0 **** 0.06
29409 H 100.16702156396126 35.31631877562029 17.44231438029459 H 0.0 **** 0.06
29410 H 100.43606121875483 34.041420656552475 18.655374340896486 H 0.0 **** 0.06
29411 C 11.42179752701987 54.88227753059371 95.69498997697771 C 0.0 **** -0.24
29412 H 12.038447367034998 55.73967231323096 95.42733727055622 H 0.0 **** 0.06
29413 H 10.428469230856694 55.00027623683495 95.26248674698338 H 0.0 **** 0.06
29414 H 11.34062820188268 54.81788813975886 96.78007679957894 H 0.0 **** 0.06
29415 H 11.879645308305044 53.97127343254986 95.31005909079242 H 0.0 **** 0.06
29416 C 56.82984650254815 15.570937533643132 0.045232977018201836 C 0.0 **** -0.24
29417 H 56.4558411166372 14.767444123739551 -0.5904094108515494 H 0.0 **** 0.06
29418 H 57.8999531599122 15.69824736293009 -0.1233282704113492 H 0.0 **** 0.06
29419 H 56.65317397312103 15.317673423531517 1.0908839717985472 H 0.0 **** 0.06
29420 H 56.3098799956513 16.497585897430838 -0.19791000112118695 H 0.0 **** 0.06
29421 C 47.705063409517095 108.23637812805072 4.81403029419225 C 0.0 **** -0.24
29422 H 48.10692958154783 107.78286828038162 3.9082332760606135 H 0.0 **** 0.06
29423 H 47.48019944791042 109.28663496436224 4.626158850539412 H 0.0 **** 0.06
29424 H 48.44132913876666 108.15941301397945 5.615253173890437 H 0.0 **** 0.06
29425 H 46.793534581054075 107.71655913012751 5.107880996125985 H 0.0 **** 0.06
29426 C 0.8362673905944007 99.89615940181312 28.497157609451932 C 0.0 **** -0.24
29427 H 0.10315285866792578 99.809185874239 29.299221548970138 H 0.0 **** 0.06
29428 H 0.3364326711596277 100.20771812706408 27.580594342530617 H 0.0 **** 0.06
29429 H 1.318410050735281 98.93131259974979 28.339205151696973 H 0.0 **** 0.06
29430 H 1.5885247334278176 100.63675356549669 28.771278218088526 H 0.0 **** 0.06
29431 C 102.2214561193507 86.99212081866432 17.00112208515166 C 0.0 **** -0.24
29432 H 103.13183102905802 87.56908078292929 17.15919648193515 H 0.0 **** 0.06
29433 H 101.73327332520054 87.32678973812375 16.084750853469366 H 0.0 **** 0.06
29434 H 101.547518827874 87.13737047059465 17.845627826843526 H 0.0 **** 0.06
29435 H 102.47152077488033 85.93443654872584 16.913677503961775 H 0.0 **** 0.06
29436 C 76.95405064544406 2.4043400327554707 48.832547650214295 C 0.0 **** -0.24
29437 H 76.60301151837146 1.6069824766635605 48.17690112894305 H 0.0 **** 0.06
29438 H 77.42574492296069 3.184840403998905 48.23582616991075 H 0.0 **** 0.06
29439 H 77.67919545785298 1.999962527573416 49.53919800775567 H 0.0 **** 0.06
29440 H 76.10941995355904 2.8234557687096924 49.378643627836325 H 0.0 **** 0.06
29441 C 75.13993142746574 100.03431071479744 69.24574534467693 C 0.0 **** -0.24
29442 H 76.02834229850035 99.43404788070097 69.04984610835379 H 0.0 **** 0.06
29443 H 74.4682412089984 99.48602903927072 69.9069112531872 H 0.0 **** 0.06
29444 H 74.63095072450906 100.24719490841827 68.30513496927766 H 0.0 **** 0.06
29445 H 75.43174724367606 100.97185807185797 69.71997460642807 H 0.0 **** 0.06
29446 C 78.14628304925847 26.45869946353548 92.75803552263821 C 0.0 **** -0.24
29447 H 78.71798816268287 26.297039327775536 93.67108483929837 H 0.0 **** 0.06
29448 H 78.04372151831922 27.5297974610927 92.57945178151766 H 0.0 **** 0.06
29449 H 77.15842826011644 26.011891739127435 92.86432555684841 H 0.0 **** 0.06
29450 H 78.66490713911912 25.99851696313712 91.91723770976368 H 0.0 **** 0.06
29451 C 109.29200047618372 88.29171639080653 78.04897322963197 C 0.0 **** -0.24
29452 H 108.41340587241667 87.68143793712136 77.84566195181725 H 0.0 **** 0.06
29453 H 110.19135463910351 87.69271824941364 77.90593414651659 H 0.0 **** 0.06
29454 H 109.25437761838717 88.65219926273994 79.07639740032772 H 0.0 **** 0.06
29455 H 109.30984211040246 89.14176006200279 77.36603373322384 H 0.0 **** 0.06
29456 C 91.09551803971732 31.718441157647447 37.258894462956874 C 0.0 **** -0.24
29457 H 90.96470755452185 32.65523270837937 36.718044181922494 H 0.0 **** 0.06
29458 H 90.11918862752242 31.32018628853814 37.536913980080314 H 0.0 **** 0.06
29459 H 91.68403124942756 31.897767068053327 38.15885129486892 H 0.0 **** 0.06
29460 H 91.61266798066384 31.000464166048744 36.62344362018107 H 0.0 **** 0.06
29461 C 24.779935591692634 10.600989377591304 97.11523682448976 C 0.0 **** -0.24
29462 H 25.27995953182075 9.91468301410464 96.43135559989771 H 0.0 **** 0.06
29463 H 24.19769960209459 11.323495968227974 96.54259174804662 H 0.0 **** 0.06
29464 H 25.52473884338033 11.124692194791635 97.71359732269867 H 0.0 **** 0.06
29465 H 24.11638589807202 10.038909957812905 97.77281527605471 H 0.0 **** 0.06
29466 C 22.030732024899265 96.06079583396411 102.7390312421397 C 0.0 **** -0.24
29467 H 22.889753862763612 96.15233581096516 103.40437237369211 H 0.0 **** 0.06
29468 H 21.591574528659635 95.06945428974785 102.84803798358334 H 0.0 **** 0.06
29469 H 22.35280045361185 96.20541363373059 101.70846857390846 H 0.0 **** 0.06
29470 H 21.2899982502866 96.8173010798306 102.99853492741452 H 0.0 **** 0.06
29471 C 69.2103808627179 58.16513043782655 63.92498033959845 C 0.0 **** -0.24
29472 H 69.09806469355317 57.79886984724038 64.94550085740812 H 0.0 **** 0.06
29473 H 68.95728004594906 59.22471719250433 63.889812952040984 H 0.0 **** 0.06
29474 H 68.54375107224774 57.610733375573176 63.26460584702846 H 0.0 **** 0.06
29475 H 70.24164770264059 58.02633264605282 63.60061367111393 H 0.0 **** 0.06
29476 C 69.07806971217094 84.65558744084976 21.495881178334827 C 0.0 **** -0.24
29477 H 69.35317878456749 85.5071639392047 22.119068457507836 H 0.0 **** 0.06
29478 H 69.98044935499247 84.14891974936495 21.154620776122982 H 0.0 **** 0.06
29479 H 68.50967572288705 85.00553625287256 20.633667743548784 H 0.0 **** 0.06
29480 H 68.46810596480346 83.96341935374869 22.07605995461958 H 0.0 **** 0.06
29481 C 66.40799733585769 70.10896046500426 97.00679094802624 C 0.0 **** -0.24
29482 H 66.07961617161335 71.07331283808844 97.39693229398395 H 0.0 **** 0.06
29483 H 67.49698496725607 70.08420549091909 96.97028094614554 H 0.0 **** 0.06
29484 H 66.0063813436562 69.96784473784277 96.00389177271136 H 0.0 **** 0.06
29485 H 66.04747590903631 69.31303566891779 97.65832135885827 H 0.0 **** 0.06
29486 C 14.382624786442648 100.55946682555862 9.108413136386446 C 0.0 **** -0.24
29487 H 14.909684183912418 99.92248626342594 9.818687037419267 H 0.0 **** 0.06
29488 H 13.610651821220813 99.97941028762291 8.602669109059974 H 0.0 **** 0.06
29489 H 15.089273853388704 100.94348194513829 8.371823419524958 H 0.0 **** 0.06
29490 H 13.922581343165405 101.39238911883236 9.640116387516485 H 0.0 **** 0.06
29491 C 22.582645202259755 57.69358515515812 76.01018252620213 C 0.0 **** -0.24
29492 H 21.883516677436603 57.22956890901213 75.31529833757088 H 0.0 **** 0.06
29493 H 23.48075899462208 57.080519179591455 76.0864819212801 H 0.0 **** 0.06
29494 H 22.11541138381716 57.77828020743699 76.99214497509382 H 0.0 **** 0.06
29495 H 22.848752632620005 58.68630418805835 75.64887994083335 H 0.0 **** 0.06
29496 C 34.67184718419111 36.9970683073291 104.62220529418835 C 0.0 **** -0.24
29497 H 35.29445641304467 37.776620550462894 104.1830448259941 H 0.0 **** 0.06
29498 H 33.75200398268561 36.89936721299472 104.0445203391464 H 0.0 **** 0.06
29499 H 34.42871885368501 37.26351792320014 105.6506381138239 H 0.0 **** 0.06
29500 H 35.21178875424931 36.05047533179845 104.60891298219269 H 0.0 **** 0.06
29501 C 20.71333088452157 35.68085782897887 61.5993825953212 C 0.0 **** -0.24
29502 H 20.710838206130745 35.10134334095622 62.52164151988961 H 0.0 **** 0.06
29503 H 21.48384899717505 36.44953554390642 61.65528654405735 H 0.0 **** 0.06
29504 H 19.738652436113156 36.15159048651603 61.464276574739515 H 0.0 **** 0.06
29505 H 20.917833585995727 35.02147993890779 60.7559969798006 H 0.0 **** 0.06
29506 C 90.11276229268003 96.19710653439782 98.93612127655061 C 0.0 **** -0.24
29507 H 91.14702250324066 96.0019846677235 99.21935286306322 H 0.0 **** 0.06
29508 H 89.95890894603193 97.27254141340772 98.84416008327824 H 0.0 **** 0.06
29509 H 89.44512236982285 95.79778230460428 99.69885707620261 H 0.0 **** 0.06
29510 H 89.90142462748031 95.71718418937866 97.98076596199253 H 0.0 **** 0.06
29511 C 47.18116262926399 84.58827405708104 37.04820812721201 C 0.0 **** -0.24
29512 H 46.832798224693626 85.62126515667717 37.03999152183002 H 0.0 **** 0.06
29513 H 48.178199609133834 84.54623301631636 37.487723451909744 H 0.0 **** 0.06
29514 H 47.21661411883857 84.20901476695101 36.0262651183219 H 0.0 **** 0.06
29515 H 46.49682121603819 83.97877851557476 37.63778750621043 H 0.0 **** 0.06
29516 C 71.67949588889829 24.32531228464444 48.56962815131496 C 0.0 **** -0.24
29517 H 72.66797281753071 23.86470348589563 48.56828048463347 H 0.0 **** 0.06
29518 H 71.7555494849049 25.34757950322262 48.9403267540847 H 0.0 **** 0.06
29519 H 71.01360651902519 23.752502584527235 49.21481048359531 H 0.0 **** 0.06
29520 H 71.28262379662516 24.335128301378106 47.55405191294951 H 0.0 **** 0.06
29521 C 49.86709883327768 19.904322432641823 42.825904418340826 C 0.0 **** -0.24
29522 H 50.469820984665034 20.65202602117652 43.34119967683597 H 0.0 **** 0.06
29523 H 48.93973895788611 20.361684837050785 42.48025259482782 H 0.0 **** 0.06
29524 H 49.63759038551365 19.08800541530757 43.510107032544624 H 0.0 **** 0.06
29525 H 50.42279633468769 19.51739760551773 41.97154246613542 H 0.0 **** 0.06
29526 C 60.89690314391699 82.13063690049532 65.1170889103962 C 0.0 **** -0.24
29527 H 61.12556105569429 81.58024660694639 64.20472992226647 H 0.0 **** 0.06
29528 H 61.549258633407504 83.00125759768088 65.18976501605775 H 0.0 **** 0.06
29529 H 61.054408399589704 81.48417311423594 65.98006370634187 H 0.0 **** 0.06
29530 H 59.85694220717325 82.4570964825986 65.09210321107139 H 0.0 **** 0.06
29531 C 6.742124090260177 57.41138226195335 68.24000339058125 C 0.0 **** -0.24
29532 H 6.029510190262215 58.19289458659472 67.97527370390162 H 0.0 **** 0.06
29533 H 7.746483954234861 57.72183835546241 67.94883122471902 H 0.0 **** 0.06
29534 H 6.480569959814602 56.49061598912087 67.7205434115769 H 0.0 **** 0.06
29535 H 6.711029555478262 57.243374132664144 69.31709267276699 H 0.0 **** 0.06
29536 C 64.35501188521164 83.550162542733 67.06348785999643 C 0.0 **** -0.24
29537 H 63.43311901166987 83.84726837133212 66.56324138610915 H 0.0 **** 0.06
29538 H 64.40853294194349 82.46197492061123 67.1080199084397 H 0.0 **** 0.06
29539 H 64.36625791383025 83.95691643501556 68.07475917291748 H 0.0 **** 0.06
29540 H 65.21073587583919 83.9327627182704 66.50770697426236 H 0.0 **** 0.06
29541 C 18.788194976911527 98.00515151158987 54.78820746545176 C 0.0 **** -0.24
29542 H 17.861293952008023 97.84808653460681 55.3403713686248 H 0.0 **** 0.06
29543 H 19.187145329528718 97.04320417069945 54.4664128251581 H 0.0 **** 0.06
29544 H 19.51381055651789 98.50366818321015 55.43123704716484 H 0.0 **** 0.06
29545 H 18.589113645315702 98.62663587997272 53.91468087321621 H 0.0 **** 0.06
29546 C 1.1372722487625282 88.86014911256736 51.45970509714221 C 0.0 **** -0.24
29547 H 1.3383229585286074 88.15181472393576 52.26421546587419 H 0.0 **** 0.06
29548 H 1.7651356741681496 88.62245540553229 50.60123432698555 H 0.0 **** 0.06
29549 H 1.3576197598776503 89.87046239135091 51.80359881467637 H 0.0 **** 0.06
29550 H 0.08721351743028549 88.79441388873505 51.172274276441804 H 0.0 **** 0.06
29551 C 30.06573859083136 73.81333394845653 1.5692642686731233 C 0.0 **** -0.24
29552 H 29.211218689638997 73.18736816762444 1.8250442742128428 H 0.0 **** 0.06
29553 H 30.785295819029784 73.22897166282888 0.994506883849624 H 0.0 **** 0.06
29554 H 30.53744347276225 74.17449323715951 2.482474691326729 H 0.0 **** 0.06
29555 H 29.728777089844726 74.66115140889899 0.9732631471812283 H 0.0 **** 0.06
29556 C 87.31549181957749 44.81646710501098 17.854149123430574 C 0.0 **** -0.24
29557 H 87.27199458419605 43.93098827215962 17.2201585234817 H 0.0 **** 0.06
29558 H 86.92948485748883 45.675214449436076 17.304562454757132 H 0.0 **** 0.06
29559 H 88.34913984060647 45.00467595410801 18.144474910998497 H 0.0 **** 0.06
29560 H 86.71055996931385 44.65411797741205 18.74661375289267 H 0.0 **** 0.06
29561 C 60.89580582765461 9.619325679357132 89.88249394768684 C 0.0 **** -0.24
29562 H 60.82055520026012 8.653863353354012 89.38153513195863 H 0.0 **** 0.06
29563 H 60.60681943034996 9.508937113182753 90.92841228404549 H 0.0 **** 0.06
29564 H 60.23098836490243 10.333353824924018 89.39566600330392 H 0.0 **** 0.06
29565 H 61.92275968535216 9.979257332213649 89.82446968137225 H 0.0 **** 0.06
29566 C 105.37167811183366 61.17367696480311 33.99910340105067 C 0.0 **** -0.24
29567 H 105.93051287571052 62.02981140583675 33.62022819219179 H 0.0 **** 0.06
29568 H 105.5971045277928 61.03120309398598 35.05674184132255 H 0.0 **** 0.06
29569 H 105.6553814185512 60.280064989653155 33.44344260576466 H 0.0 **** 0.06
29570 H 104.30413518183144 61.35511259037722 33.876788065809116 H 0.0 **** 0.06
29571 C 55.16166920434199 29.758070127259387 62.43233159103086 C 0.0 **** -0.24
29572 H 54.64745519874111 30.55239308400916 62.97288208198388 H 0.0 **** 0.06
29573 H 54.44891898730128 29.23173282579714 61.79589531358907 H 0.0 **** 0.06
29574 H 55.59906045617703 29.05732423670615 63.144053441704926 H 0.0 **** 0.06
29575 H 55.95024572525 30.18994364946746 61.81602549849822 H 0.0 **** 0.06
29576 C 83.44638587909833 37.60690066593201 2.9536515737146516 C 0.0 **** -0.24
29577 H 82.82548329752177 37.984827594216476 2.1405782987181396 H 0.0 **** 0.06
29578 H 83.30247379342069 36.53094639188109 3.050721448700159 H 0.0 **** 0.06
29579 H 83.16116940972637 38.09778483150157 3.8848278349301495 H 0.0 **** 0.06
29580 H 84.4934723794916 37.8169202609659 2.7382416525384627 H 0.0 **** 0.06
29581 C 42.77174905127828 78.51403399909597 68.90515200939831 C 0.0 **** -0.24
29582 H 41.78420133506302 78.21108056261903 68.55987024747895 H 0.0 **** 0.06
29583 H 43.3188988342103 77.63773927286337 69.25562401956398 H 0.0 **** 0.06
29584 H 42.668663238492115 79.22889537313193 69.72127416627296 H 0.0 **** 0.06
29585 H 43.31760422283759 78.97802918702149 68.08336707144497 H 0.0 **** 0.06
29586 C 55.30419178028393 31.21338819264855 22.188581210736956 C 0.0 **** -0.24
29587 H 55.46916124341135 30.232038190712956 22.634734966055714 H 0.0 **** 0.06
29588 H 54.29891259401302 31.55857640253913 22.431352191890113 H 0.0 **** 0.06
29589 H 55.41384922731362 31.143709599832192 21.106091474453798 H 0.0 **** 0.06
29590 H 56.03616361988759 31.91774911142221 22.58318070560656 H 0.0 **** 0.06
29591 C 0.052143214479457356 40.96008104266792 16.680671672427053 C 0.0 **** -0.24
29592 H 0.829837142215041 41.46024317582919 17.258511526207656 H 0.0 **** 0.06
29593 H -0.8477779103764931 40.86730138055151 17.2889033568988 H 0.0 **** 0.06
29594 H 0.397052600024125 39.9685749707329 16.389304153808837 H 0.0 **** 0.06
29595 H -0.17043690465928307 41.54515201793487 15.788630820084279 H 0.0 **** 0.06
29596 C 26.35063975407064 4.698572033869027 72.88104373384829 C 0.0 **** -0.24
29597 H 26.944052384956592 5.501171896460335 72.44196535522792 H 0.0 **** 0.06
29598 H 25.320967269658098 5.035618709445316 73.00681755097813 H 0.0 **** 0.06
29599 H 26.76594102858556 4.430227135351004 73.85273594760056 H 0.0 **** 0.06
29600 H 26.37163525077881 3.8298043475236057 72.22391231170394 H 0.0 **** 0.06
29601 C 15.03797430347197 31.534488114441743 6.441147521599115 C 0.0 **** -0.24
29602 H 14.032067974290257 31.13172685282072 6.562620654110839 H 0.0 **** 0.06
29603 H 15.015366349552664 32.61583543030707 6.578747516664357 H 0.0 **** 0.06
29604 H 15.403223182112072 31.302102959916027 5.440957917374721 H 0.0 **** 0.06
29605 H 15.699221900085348 31.086980914811733 7.182735516337376 H 0.0 **** 0.06
29606 C 13.287331129891129 63.108052926949426 19.381179683634258 C 0.0 **** -0.24
29607 H 12.911867437734173 63.973490705047425 18.83478756149941 H 0.0 **** 0.06
29608 H 14.37487911623137 63.1584398535926 19.437415047654184 H 0.0 **** 0.06
29609 H 12.991861866552412 62.195913264113074 18.862827479382645 H 0.0 **** 0.06
29610 H 12.87102330145251 63.106358608905396 20.388294751288214 H 0.0 **** 0.06
29611 C 9.521058656679685 13.345808345095065 9.65845640412941 C 0.0 **** -0.24
29612 H 9.84962924726841 12.324214385690397 9.852750189117216 H 0.0 **** 0.06
29613 H 8.666445976279007 13.329492770486212 8.982897540914266 H 0.0 **** 0.06
29614 H 10.336177565476405 13.907864147309823 9.202132697138637 H 0.0 **** 0.06
29615 H 9.23401698026747 13.819910775525585 10.597992413843087 H 0.0 **** 0.06
29616 C 73.59523997532062 4.5745880491191855 50.96350551079156 C 0.0 **** -0.24
29617 H 74.49769267194677 4.677563045503035 51.56585850653693 H 0.0 **** 0.06
29618 H 73.29993781282931 3.525584144652896 50.9275146164432 H 0.0 **** 0.06
29619 H 73.79073516129498 4.931341205525925 49.95197167043519 H 0.0 **** 0.06
29620 H 72.79288985121308 5.162667045405385 51.40798406966271 H 0.0 **** 0.06
29621 C 52.45804715253337 47.403957698311274 25.459741885441275 C 0.0 **** -0.24
29622 H 51.93808011014812 46.61052631485717 25.996346735493432 H 0.0 **** 0.06
29623 H 53.07953700494437 46.96638846682501 24.677739039578398 H 0.0 **** 0.06
29624 H 53.0852660852122 47.96119505318791 26.154119091135072 H 0.0 **** 0.06
29625 H 51.72703594533357 48.075755451728156 25.00876593856279 H 0.0 **** 0.06
29626 C 42.35929148677239 94.42008681115358 57.99504012503445 C 0.0 **** -0.24
29627 H 42.776231810333286 94.25495414907644 57.00197678706178 H 0.0 **** 0.06
29628 H 43.164934811639284 94.43807339094474 58.729710956141844 H 0.0 **** 0.06
29629 H 41.66514754976201 93.61555219275252 58.235431568831814 H 0.0 **** 0.06
29630 H 41.83024275820779 95.37388593373471 58.012664844476376 H 0.0 **** 0.06
29631 C 2.1643870309745736 105.26709128034186 0.3451074940423098 C 0.0 **** -0.24
29632 H 2.3064292500046104 104.26752143575196 -0.0651935848602676 H 0.0 **** 0.06
29633 H 2.8356101056668663 105.96432505704874 -0.15645158982343332 H 0.0 **** 0.06
29634 H 2.381848496815878 105.256400263509 1.4128813693248077 H 0.0 **** 0.06
29635 H 1.1311735333531967 105.58003298015187 0.18784870174573598 H 0.0 **** 0.06
29636 C 19.706675982931415 63.97264190852786 15.9956957426582 C 0.0 **** -0.24
29637 H 19.78671238086031 63.04758396564833 15.425258355535476 H 0.0 **** 0.06
29638 H 19.199754704840984 64.72769421068064 15.394142134363847 H 0.0 **** 0.06
29639 H 20.70498636804325 64.32561214876098 16.25691081559117 H 0.0 **** 0.06
29640 H 19.136319566322754 63.788759834789204 16.906347607726588 H 0.0 **** 0.06
29641 C 47.29360433505187 71.57107243734458 75.54863567707511 C 0.0 **** -0.24
29642 H 46.962805807855396 71.23949387970572 74.56494476819685 H 0.0 **** 0.06
29643 H 47.60885544004216 70.70778172384132 76.13538672237075 H 0.0 **** 0.06
29644 H 46.47139477065078 72.07469823695044 76.05723017279104 H 0.0 **** 0.06
29645 H 48.12992850152383 72.26082066463442 75.43782456070147 H 0.0 **** 0.06
29646 C 96.90454811458868 4.05079865294033 2.7112335792616307 C 0.0 **** -0.24
29647 H 96.49884714990017 3.809977827077361 3.6933684348440323 H 0.0 **** 0.06
29648 H 97.87007717747473 4.54303553305661 2.82744607105451 H 0.0 **** 0.06
29649 H 96.21762466088974 4.716064371337424 2.1880332735499053 H 0.0 **** 0.06
29650 H 97.03103321343045 3.1333834593557413 2.135786987787796 H 0.0 **** 0.06
29651 C 99.06187949834117 88.90454170654694 48.15297729790185 C 0.0 **** -0.24
29652 H 98.01991970506315 89.22066683933245 48.101590913100836 H 0.0 **** 0.06
29653 H 99.48184928359184 88.87224741608648 47.14813836908016 H 0.0 **** 0.06
29654 H 99.11785197789752 87.91315320141308 48.60283704204881 H 0.0 **** 0.06
29655 H 99.6258764833624 89.61221217677381 48.76029414356531 H 0.0 **** 0.06
29656 C 61.274400619476296 95.34516195588056 80.03937094871632 C 0.0 **** -0.24
29657 H 62.30575653458442 95.27102162293663 80.38475344607274 H 0.0 **** 0.06
29658 H 61.21395080549962 95.01715377994287 79.00151289761975 H 0.0 **** 0.06
29659 H 60.93941532012286 96.37920745212222 80.11439477343895 H 0.0 **** 0.06
29660 H 60.63850755220034 94.7114931701578 80.65818657255818 H 0.0 **** 0.06
29661 C 81.30670723370164 16.160676193826305 7.35420644395937 C 0.0 **** -0.24
29662 H 81.40588333810871 17.243351698274182 7.271485506543428 H 0.0 **** 0.06
29663 H 81.74290198521004 15.826766261051091 8.29616408930353 H 0.0 **** 0.06
29664 H 81.82770351897972 15.684903791912575 6.523398793276726 H 0.0 **** 0.06
29665 H 80.25229626707488 15.888993908685592 7.325102657241899 H 0.0 **** 0.06
29666 C 34.03675232870921 34.89433767718354 72.71546358857913 C 0.0 **** -0.24
29667 H 33.320355085721076 34.07254124824459 72.7178102041084 H 0.0 **** 0.06
29668 H 34.340751500007855 35.10717524075406 71.69132616473117 H 0.0 **** 0.06
29669 H 34.91111262599213 34.6149312745105 73.30462407126826 H 0.0 **** 0.06
29670 H 33.57361042208737 35.77989576182355 73.15026848719451 H 0.0 **** 0.06
29671 C 12.156065407774094 9.659571433289898 12.525312553719317 C 0.0 **** -0.24
29672 H 11.66928767117588 8.782507663885667 12.952532020708645 H 0.0 **** 0.06
29673 H 12.898032435271432 10.040547840858977 13.227726831019254 H 0.0 **** 0.06
29674 H 11.409991162580496 10.430224337186957 12.330063448541296 H 0.0 **** 0.06
29675 H 12.646871607716037 9.383944451383428 11.59229440348372 H 0.0 **** 0.06
29676 C 20.594741841423 30.238308233454646 83.87589660338367 C 0.0 **** -0.24
29677 H 20.669215785250145 30.337347173404808 84.95935303508725 H 0.0 **** 0.06
29678 H 19.6529653231878 29.752082280432916 83.6199098565577 H 0.0 **** 0.06
29679 H 21.42639585605997 29.637536428830174 83.50826542478974 H 0.0 **** 0.06
29680 H 20.629713617449937 31.226391982255493 83.41818567875886 H 0.0 **** 0.06
29681 C 43.939897953206184 92.30464050769827 78.05432789950018 C 0.0 **** -0.24
29682 H 43.86548451236348 91.29333842253993 78.45546833530194 H 0.0 **** 0.06
29683 H 42.942903659766046 92.7369240347526 77.97229638534843 H 0.0 **** 0.06
29684 H 44.404600230627466 92.27062055914912 77.06847377999466 H 0.0 **** 0.06
29685 H 44.548368428451454 92.91611512964619 78.72173587334476 H 0.0 **** 0.06
29686 C 98.78648329138467 4.631772286392161 100.28821338271659 C 0.0 **** -0.24
29687 H 99.19014352735054 5.601435035500703 99.99589086075468 H 0.0 **** 0.06
29688 H 97.7021737521683 4.6996083665978166 100.37081426416704 H 0.0 **** 0.06
29689 H 99.20681401384215 4.339426071828406 101.25127346056479 H 0.0 **** 0.06
29690 H 99.04903231413181 3.887568932301921 99.5371386984364 H 0.0 **** 0.06
29691 C 0.411438270844946 108.43616746439152 33.17071608152253 C 0.0 **** -0.24
29692 H -0.08402899648703155 108.92657004187828 34.008810572805125 H 0.0 **** 0.06
29693 H -0.07762684394543218 108.72501913930293 32.24034847044117 H 0.0 **** 0.06
29694 H 0.3489513032744984 107.3547133460869 33.294479020381544 H 0.0 **** 0.06
29695 H 1.4587970191901931 108.73771937818191 33.14133936784136 H 0.0 **** 0.06
29696 C 100.42997203835583 38.543435924706245 77.32281321962908 C 0.0 **** -0.24
29697 H 101.08322543821048 39.37344441846707 77.05420431350694 H 0.0 **** 0.06
29698 H 99.98018736101105 38.73640179605968 78.29729145527286 H 0.0 **** 0.06
29699 H 101.01146709701042 37.622246559317006 77.36535184510431 H 0.0 **** 0.06
29700 H 99.64440969493373 38.443678073641564 76.5731672465338 H 0.0 **** 0.06
29701 C 83.19202185986984 15.410105597354356 83.11581195245216 C 0.0 **** -0.24
29702 H 83.78602791041521 14.872108262843355 82.37639083485081 H 0.0 **** 0.06
29703 H 83.77985284175998 15.545340690538286 84.0243113328876 H 0.0 **** 0.06
29704 H 82.29303267049784 14.83886296857754 83.34500424420156 H 0.0 **** 0.06
29705 H 82.9113336480392 16.38436998617818 82.71573334937816 H 0.0 **** 0.06
29706 C 59.463599888461175 82.88048459170068 100.80759226757084 C 0.0 **** -0.24
29707 H 60.328770299589166 82.23937280897599 100.63952475241126 H 0.0 **** 0.06
29708 H 59.790364386917986 83.82229003899738 101.2508308386301 H 0.0 **** 0.06
29709 H 58.76812215219235 82.38313074210726 101.4836556746894 H 0.0 **** 0.06
29710 H 58.96726531778529 83.07891153132039 99.85772301314992 H 0.0 **** 0.06
29711 C 19.82929818861527 87.62132159992352 37.425462390650054 C 0.0 **** -0.24
29712 H 19.320397565278768 88.4156594841558 36.8811029007293 H 0.0 **** 0.06
29713 H 20.905554017424123 87.79636727671182 37.40262965071693 H 0.0 **** 0.06
29714 H 19.60817666408991 86.66122368215888 36.960002311758274 H 0.0 **** 0.06
29715 H 19.48466697272366 87.61096749432495 38.4596282354035 H 0.0 **** 0.06
29716 C 13.01005713362441 22.512458233587438 48.58123613158631 C 0.0 **** -0.24
29717 H 12.37166510129537 23.374333471374598 48.781492638275665 H 0.0 **** 0.06
29718 H 13.76300378759101 22.429437345006818 49.3655662762863 H 0.0 **** 0.06
29719 H 13.500991687396223 22.64054905845461 47.61705159688182 H 0.0 **** 0.06
29720 H 12.40260151111961 21.607738402417397 48.56311033395417 H 0.0 **** 0.06
29721 C 41.11220554259398 23.32649902882619 109.5630554149205 C 0.0 **** -0.24
29722 H 40.85254621948465 22.60064532814954 108.79239186333814 H 0.0 **** 0.06
29723 H 41.920633018480544 23.96381420449987 109.202806451146 H 0.0 **** 0.06
29724 H 41.435892995173646 22.801922381922765 110.46186664298524 H 0.0 **** 0.06
29725 H 40.24096383217085 23.939807916627984 109.79303792178062 H 0.0 **** 0.06
29726 C 22.90709817767761 23.06587111890468 86.85394042720215 C 0.0 **** -0.24
29727 H 22.165189755116224 22.30428081425748 86.61587128746716 H 0.0 **** 0.06
29728 H 22.855645887181296 23.866506351345606 86.11573667836471 H 0.0 **** 0.06
29729 H 23.90192844179182 22.620398629190987 86.83810111585895 H 0.0 **** 0.06
29730 H 22.706677355353676 23.471395960695588 87.84576045677852 H 0.0 **** 0.06
29731 C 78.92850045412052 15.43417293593906 68.96494646469748 C 0.0 **** -0.24
29732 H 78.74134421275784 16.331204662151436 69.55451448134897 H 0.0 **** 0.06
29733 H 79.74144446739439 14.865187985044642 69.41636759308125 H 0.0 **** 0.06
29734 H 79.20304777819769 15.7185046861931 67.94915707544723 H 0.0 **** 0.06
29735 H 78.02659505928119 14.823075604220435 68.93880174777013 H 0.0 **** 0.06
29736 C 101.92744493663248 54.49731208714434 59.67671818362007 C 0.0 **** -0.24
29737 H 101.67199190659629 55.25220160966444 58.93163729643065 H 0.0 **** 0.06
29738 H 102.59111317270583 54.934658823665075 60.42265194067336 H 0.0 **** 0.06
29739 H 102.42878030704814 53.66181166676739 59.188884480964234 H 0.0 **** 0.06
29740 H 101.01762562486948 54.14368748549032 60.16082693050902 H 0.0 **** 0.06
29741 C 23.24106618014781 54.48136658622741 98.77010950217962 C 0.0 **** -0.24
29742 H 22.438640369091615 54.81227964526781 99.42992785639751 H 0.0 **** 0.06
29743 H 24.20340576259457 54.744642889343254 99.20960467014199 H 0.0 **** 0.06
29744 H 23.137981735885376 54.969567808180955 97.80151362147495 H 0.0 **** 0.06
29745 H 23.182241159412683 53.40072017637996 98.64138575342483 H 0.0 **** 0.06
29746 C 107.22546513257677 2.5311830720984316 83.86243977564791 C 0.0 **** -0.24
29747 H 106.7098639039219 3.204319453004601 83.17794608054413 H 0.0 **** 0.06
29748 H 106.56398043993791 1.7070088638678769 84.12781441069774 H 0.0 **** 0.06
29749 H 107.50905174754422 3.0748928265970834 84.76311405420637 H 0.0 **** 0.06
29750 H 108.1202229712307 2.1387037528415984 83.37904628450255 H 0.0 **** 0.06
29751 C 85.07387039402226 57.90807755768399 6.825880472551944 C 0.0 **** -0.24
29752 H 84.70451451980608 56.91088165308209 7.06756929224089 H 0.0 **** 0.06
29753 H 85.63442319705825 57.87067804848708 5.890848502909378 H 0.0 **** 0.06
29754 H 85.72539331741285 58.25730406797004 7.626432500600444 H 0.0 **** 0.06
29755 H 84.23126593823173 58.59118918601737 6.717727301223974 H 0.0 **** 0.06
29756 C 63.49677019782722 80.72403197603707 5.680025759685975 C 0.0 **** -0.24
29757 H 63.414805184810206 80.10334973782697 4.787331412742731 H 0.0 **** 0.06
29758 H 62.62635464441007 80.56138038452917 6.315739604784881 H 0.0 **** 0.06
29759 H 63.54411081094631 81.77318380226691 5.389641299634462 H 0.0 **** 0.06
29760 H 64.40184281002836 80.45601327299505 6.22631549070266 H 0.0 **** 0.06
29761 C 103.75688854375659 51.283176258348135 43.18420310414058 C 0.0 **** -0.24
29762 H 103.68706190515906 50.973272292602644 42.14211981858999 H 0.0 **** 0.06
29763 H 104.17870700987385 50.47174846312373 43.77656949039937 H 0.0 **** 0.06
29764 H 102.76333273998651 51.52891172312269 43.55822686849412 H 0.0 **** 0.06
29765 H 104.39992181510104 52.16016109103958 43.258940526749456 H 0.0 **** 0.06
29766 C 18.536403771863945 57.7610526051475 95.52644306267669 C 0.0 **** -0.24
29767 H 18.407021165473168 57.958086795236035 96.59070738054858 H 0.0 **** 0.06
29768 H 19.36825131770098 57.072713949630334 95.38350137697114 H 0.0 **** 0.06
29769 H 18.74477472793359 58.6975994922655 95.00724614879148 H 0.0 **** 0.06
29770 H 17.62381700960617 57.3196458279708 95.12478977286605 H 0.0 **** 0.06
29771 C 107.56631696093514 31.5314333212348 80.046287922484 C 0.0 **** -0.24
29772 H 106.52426300954069 31.81449918949548 79.8988527775117 H 0.0 **** 0.06
29773 H 108.06909379714398 31.483121412261028 79.08004297024377 H 0.0 **** 0.06
29774 H 107.6129278929886 30.55636363466553 80.53019942389619 H 0.0 **** 0.06
29775 H 108.05924809374899 32.27305821132927 80.67559176728571 H 0.0 **** 0.06
29776 C 39.17486265815302 2.2046176902377272 88.04308997633717 C 0.0 **** -0.24
29777 H 39.079416293370116 1.238354169204059 88.53859141158338 H 0.0 **** 0.06
29778 H 38.28644240979071 2.393450248671339 87.44035487928875 H 0.0 **** 0.06
29779 H 40.05578284866618 2.1978234994434436 87.40174585272544 H 0.0 **** 0.06
29780 H 39.27881919883362 2.9879300215999924 88.79414703862875 H 0.0 **** 0.06
29781 C 89.84954124238288 5.441939398258569 104.4859481286629 C 0.0 **** -0.24
29782 H 89.09480216105146 5.04360802995933 105.16431743985399 H 0.0 **** 0.06
29783 H 90.06771743880404 6.475974396517529 104.7529886403325 H 0.0 **** 0.06
29784 H 89.47694966269665 5.4007883073416565 103.4626075460488 H 0.0 **** 0.06
29785 H 90.75873588729621 4.8458157623575175 104.56575780764923 H 0.0 **** 0.06
29786 C 34.48890902414229 44.057709528052996 75.35095707113481 C 0.0 **** -0.24
29787 H 35.12424356690826 44.82147753273942 75.7989629831684 H 0.0 **** 0.06
29788 H 34.09069634339511 43.41153832075658 76.13351270172615 H 0.0 **** 0.06
29789 H 35.075012942017906 43.46176747572637 74.65034076981703 H 0.0 **** 0.06
29790 H 33.66488390770661 44.53551970810937 74.82073832386317 H 0.0 **** 0.06
29791 C 11.109982739337724 32.26821033475409 89.89634096552601 C 0.0 **** -0.24
29792 H 11.933143650751543 31.598534529668413 89.64547578769239 H 0.0 **** 0.06
29793 H 10.997953460821238 32.31652649118648 90.97883613072423 H 0.0 **** 0.06
29794 H 10.187831187990858 31.893446848416943 89.45184155801644 H 0.0 **** 0.06
29795 H 11.320901385449886 33.26432374767418 89.50779980122212 H 0.0 **** 0.06
29796 C 14.45576892238077 53.81263054870854 23.463068811583412 C 0.0 **** -0.24
29797 H 13.41666097741674 53.7345324617425 23.14394311501104 H 0.0 **** 0.06
29798 H 14.537175697186683 54.552210325087856 24.259524426797498 H 0.0 **** 0.06
29799 H 15.072693305553955 54.11801226696093 22.61787464448014 H 0.0 **** 0.06
29800 H 14.79578081591032 52.844097624037744 23.83014069071413 H 0.0 **** 0.06
29801 C 105.51220602278248 87.06907329480603 45.41007220279357 C 0.0 **** -0.24
29802 H 106.22294910659791 87.12684456454627 44.586019057967576 H 0.0 **** 0.06
29803 H 104.61926400138289 86.53670022919039 45.08297846755676 H 0.0 **** 0.06
29804 H 105.23966406720514 88.07612987220233 45.72575843241532 H 0.0 **** 0.06
29805 H 105.96694691594422 86.5366185132852 46.245532853234295 H 0.0 **** 0.06
29806 C 56.83392345732939 6.504703185776213 41.085327684280344 C 0.0 **** -0.24
29807 H 57.851119552726644 6.860457708387543 40.921133616940466 H 0.0 **** 0.06
29808 H 56.12617649533569 7.241835877946173 40.7049876572047 H 0.0 **** 0.06
29809 H 56.66784371048098 6.357851742805677 42.15208913203902 H 0.0 **** 0.06
29810 H 56.69107000678199 5.5599109728577645 40.56162128749524 H 0.0 **** 0.06
29811 C 85.96236609106283 20.798957672522793 58.63613689594226 C 0.0 **** -0.24
29812 H 86.99289283681267 20.97501836390551 58.94336008228399 H 0.0 **** 0.06
29813 H 85.67822325038628 19.7775080157086 58.88940022683249 H 0.0 **** 0.06
29814 H 85.87439127478252 20.944330122354508 57.55924035055676 H 0.0 **** 0.06
29815 H 85.30517109503484 21.498364696496424 59.15215373481763 H 0.0 **** 0.06
29816 C 52.60252959897957 60.95971868943221 59.617388177108566 C 0.0 **** -0.24
29817 H 53.475342902118655 61.40301771770464 59.1378480001502 H 0.0 **** 0.06
29818 H 51.82265294847903 60.799341621875186 58.87249925686955 H 0.0 **** 0.06
29819 H 52.23283013172076 61.6331313395589 60.391273580364754 H 0.0 **** 0.06
29820 H 52.87889615354288 60.00610753737516 60.06608084559761 H 0.0 **** 0.06
29821 C 20.471150275059756 85.42376680374397 100.43374482412705 C 0.0 **** -0.24
29822 H 19.490020039711396 85.56490131949764 99.9787443347462 H 0.0 **** 0.06
29823 H 21.1927480315953 86.08521725399174 99.95356894284127 H 0.0 **** 0.06
29824 H 20.785173519369323 84.38830779691415 100.30458647520592 H 0.0 **** 0.06
29825 H 20.415014649498715 85.65694754446746 101.4962905026805 H 0.0 **** 0.06
29826 C 3.5843871309682243 15.874304254069074 19.762049513125135 C 0.0 **** -0.24
29827 H 3.8885957123034984 14.883161059808586 20.09701835012413 H 0.0 **** 0.06
29828 H 2.6322324271083346 15.803546112263788 19.236217250200212 H 0.0 **** 0.06
29829 H 4.341342498075349 16.280080119224905 19.091151335435313 H 0.0 **** 0.06
29830 H 3.4741254030240185 16.5314265826472 20.62537246486022 H 0.0 **** 0.06
29831 C 4.874678172708599 63.77139363588634 62.76452833501287 C 0.0 **** -0.24
29832 H 5.770297407462266 63.815598413278735 62.14451139374461 H 0.0 **** 0.06
29833 H 5.122989232472037 64.0750930728334 63.78289038956575 H 0.0 **** 0.06
29834 H 4.4895214327070505 62.752499295930505 62.7735503735874 H 0.0 **** 0.06
29835 H 4.1181730502169955 64.4429875785481 62.35902935526724 H 0.0 **** 0.06
29836 C 39.54447114721739 60.62422624927616 63.218545746933444 C 0.0 **** -0.24
29837 H 38.536503928770856 60.99227225747677 63.41070739648234 H 0.0 **** 0.06
29838 H 40.264496903224654 61.23703030040015 63.761238097800685 H 0.0 **** 0.06
29839 H 39.75303496210853 60.67798117456327 62.15023475037492 H 0.0 **** 0.06
29840 H 39.62220368216214 59.58941604233675 63.55250437736282 H 0.0 **** 0.06
29841 C 82.51645691778546 62.9751052445863 4.53073078540308 C 0.0 **** -0.24
29842 H 82.01934424507243 62.89279360897706 5.497091293226674 H 0.0 **** 0.06
29843 H 81.85396717089225 63.471854162629185 3.822041360740201 H 0.0 **** 0.06
29844 H 82.76236147912198 61.97907181924687 4.162376021203215 H 0.0 **** 0.06
29845 H 83.43235676254858 63.55670521677399 4.641025251139894 H 0.0 **** 0.06
29846 C 1.5118945999131768 82.85148637943718 93.22940310591066 C 0.0 **** -0.24
29847 H 2.5640363309593113 82.81077665884187 92.94879960475876 H 0.0 **** 0.06
29848 H 1.0386365889177398 83.702580005222 92.73838027077912 H 0.0 **** 0.06
29849 H 1.4291609870996638 82.96388845732996 94.31034194593961 H 0.0 **** 0.06
29850 H 1.0176594450028915 81.9313461803025 92.92066794945953 H 0.0 **** 0.06
29851 C 2.7543982253341994 62.01495846837082 30.72959690613618 C 0.0 **** -0.24
29852 H 1.7416188502547953 62.02704215653779 31.13097917954252 H 0.0 **** 0.06
29853 H 3.021809747011247 60.995385751777405 30.450510077660482 H 0.0 **** 0.06
29854 H 3.449717860924011 62.37871974224626 31.48588136733308 H 0.0 **** 0.06
29855 H 2.804108676131875 62.657447639236125 29.850423769032858 H 0.0 **** 0.06
29856 C 64.66855827690692 64.37984436348694 91.81400093010105 C 0.0 **** -0.24
29857 H 63.73917229501183 64.54080477106936 91.26850916678673 H 0.0 **** 0.06
29858 H 65.50056725187402 64.33966887695425 91.11036330915044 H 0.0 **** 0.06
29859 H 64.60952758921462 63.43916065882672 92.36138781713042 H 0.0 **** 0.06
29860 H 64.82510203488033 65.19891012198599 92.51520713872563 H 0.0 **** 0.06
29861 C 58.864868835576914 103.58691184492244 102.07389184843385 C 0.0 **** -0.24
29862 H 59.43727407263127 104.0094842471704 102.90055547190943 H 0.0 **** 0.06
29863 H 59.02023418628063 102.50863218296863 102.0389570671473 H 0.0 **** 0.06
29864 H 59.1972574014854 104.03358990747876 101.13641574165104 H 0.0 **** 0.06
29865 H 57.80556906355679 103.79682355443796 102.22175640667473 H 0.0 **** 0.06
29866 C 44.26821292129637 59.93444057718898 11.053791033009716 C 0.0 **** -0.24
29867 H 43.36997216426553 59.37598793330807 10.788146329937945 H 0.0 **** 0.06
29868 H 44.69997307805009 59.51543919379867 11.962694696889855 H 0.0 **** 0.06
29869 H 44.010233285411516 60.97960022001061 11.221828661438508 H 0.0 **** 0.06
29870 H 44.99169760756993 59.86380785236497 10.2418010252985 H 0.0 **** 0.06
29871 C 83.169205354582 14.444308951919027 42.54827303413356 C 0.0 **** -0.24
29872 H 83.75511472128579 13.529623762946244 42.63073523669499 H 0.0 **** 0.06
29873 H 83.7928548061476 15.299412304069847 42.81347031792126 H 0.0 **** 0.06
29874 H 82.3167096152244 14.392102451483026 43.22542098999992 H 0.0 **** 0.06
29875 H 82.81363552788639 14.556692148686864 41.52411095121448 H 0.0 **** 0.06
29876 C 7.25485817168421 75.21527943360604 60.31885663455779 C 0.0 **** -0.24
29877 H 8.29321306855199 75.53770653646711 60.24938953078809 H 0.0 **** 0.06
29878 H 6.59798843183542 76.06779004835795 60.14664847478117 H 0.0 **** 0.06
29879 H 7.0666207864706205 74.80550504247014 61.31131293544895 H 0.0 **** 0.06
29880 H 7.060940424816771 74.4493246768792 59.56711389524854 H 0.0 **** 0.06
29881 C 109.3399387978858 48.03501467458188 25.403023918811556 C 0.0 **** -0.24
29882 H 109.56826754135898 48.971372576972726 24.894370103925212 H 0.0 **** 0.06
29883 H 110.05524169560113 47.271460270830175 25.097803855573318 H 0.0 **** 0.06
29884 H 108.33122876231806 47.71448561393451 25.138974414677023 H 0.0 **** 0.06
29885 H 109.40284379216541 48.182347091172296 26.481296609558143 H 0.0 **** 0.06
29886 C 4.053953011446524 73.15291730860241 92.34054448675255 C 0.0 **** -0.24
29887 H 3.949282978219429 73.81951495327212 91.4838714558837 H 0.0 **** 0.06
29888 H 4.576732810874361 73.67364030375165 93.14289834442891 H 0.0 **** 0.06
29889 H 4.622502520491238 72.27107054330685 92.04756405375377 H 0.0 **** 0.06
29890 H 3.0653713687199655 72.849666132653 92.68724030470625 H 0.0 **** 0.06
29891 C 107.57934371326184 23.511745582261767 30.248636493440678 C 0.0 **** -0.24
29892 H 108.6223127830151 23.677447576775876 29.97638974106058 H 0.0 **** 0.06
29893 H 106.94114741854473 23.735436716628783 29.39385194543088 H 0.0 **** 0.06
29894 H 107.31392767253783 24.16370237323929 31.08195193239859 H 0.0 **** 0.06
29895 H 107.44169215385709 22.47141080721343 30.543382940765156 H 0.0 **** 0.06
29896 C 19.04408876955614 9.142005427305172 44.47935606435334 C 0.0 **** -0.24
29897 H 18.30821176943914 8.356193944646835 44.309023407313845 H 0.0 **** 0.06
29898 H 18.661507078508663 9.84293897735251 45.222560859089185 H 0.0 **** 0.06
29899 H 19.235050144651836 9.669995410509943 43.54591184124362 H 0.0 **** 0.06
29900 H 19.97173068028269 8.698330639730017 44.8420874707725 H 0.0 **** 0.06
29901 C 107.21299815931592 77.03196324153363 38.23105547498444 C 0.0 **** -0.24
29902 H 107.8508100661334 76.91711751179702 39.10672392144572 H 0.0 **** 0.06
29903 H 107.80557592622193 77.40863456540279 37.397292815948624 H 0.0 **** 0.06
29904 H 106.41061528369885 77.735060694566 38.45487585739751 H 0.0 **** 0.06
29905 H 106.7852040545261 76.06477760389413 37.9644151152452 H 0.0 **** 0.06
29906 C 79.67195356161729 63.839824925835615 8.619755633257626 C 0.0 **** -0.24
29907 H 79.1246040965192 64.13909717342665 7.7257396580459385 H 0.0 **** 0.06
29908 H 79.68190931149977 62.75256354120836 8.692139311154051 H 0.0 **** 0.06
29909 H 79.18426004088249 64.25814982730117 9.5006206642052 H 0.0 **** 0.06
29910 H 80.69540182452717 64.2111989731662 8.561147886344088 H 0.0 **** 0.06
29911 C 46.56065397489265 0.11859535608218152 27.534988278886857 C 0.0 **** -0.24
29912 H 45.911419655961645 0.9282179841009253 27.866709260521077 H 0.0 **** 0.06
29913 H 46.632637229313055 -0.633754625140682 28.31962049757243 H 0.0 **** 0.06
29914 H 47.5521403569361 0.5141677165777452 27.31774864976191 H 0.0 **** 0.06
29915 H 46.14483366238937 -0.33402011702318646 26.634021223869723 H 0.0 **** 0.06
29916 C 105.30561774403087 81.88771585041403 76.16785018695104 C 0.0 **** -0.24
29917 H 105.56102992239994 80.91567639006594 76.58831268191263 H 0.0 **** 0.06
29918 H 105.77028358124808 82.6743686650476 76.76356483937906 H 0.0 **** 0.06
29919 H 104.22341755377836 82.01492189578867 76.17791004471721 H 0.0 **** 0.06
29920 H 105.66946225597195 81.94577207736978 75.14147814767993 H 0.0 **** 0.06
29921 C 12.687281190164981 16.280307245025355 76.20204722080516 C 0.0 **** -0.24
29922 H 13.284531002098817 16.065911434371344 77.08862546955179 H 0.0 **** 0.06
29923 H 13.345946559846823 16.56569345750036 75.38065352925865 H 0.0 **** 0.06
29924 H 11.998726890895568 17.09751364149986 76.41677156210591 H 0.0 **** 0.06
29925 H 12.121282970995424 15.391744675876623 75.92204106057915 H 0.0 **** 0.06
29926 C 81.4955197628056 51.349056687347115 73.40759574904276 C 0.0 **** -0.24
29927 H 82.23349029635312 52.06225074602406 73.03940880663028 H 0.0 **** 0.06
29928 H 81.482339694664 51.370284684373644 74.49681357282118 H 0.0 **** 0.06
29929 H 81.75674641224714 50.34769211903017 73.06629607099805 H 0.0 **** 0.06
29930 H 80.51045608659149 51.6170950275241 73.026164438532 H 0.0 **** 0.06
29931 C 105.41432033338077 90.77947623718592 33.7592015167902 C 0.0 **** -0.24
29932 H 104.72258489092894 90.03937502470274 33.356006562069126 H 0.0 **** 0.06
29933 H 105.72202157151898 90.48080441164933 34.76095793291404 H 0.0 **** 0.06
29934 H 104.92128379368475 91.75073782075935 33.8046524773637 H 0.0 **** 0.06
29935 H 106.28999971152643 90.84619114689241 33.113993345803465 H 0.0 **** 0.06
29936 C 22.966689587064817 93.65418848597415 33.095372672524775 C 0.0 **** -0.24
29937 H 23.831219961592733 93.16265315671473 32.64854144773557 H 0.0 **** 0.06
29938 H 22.527539881630936 93.00032763195793 33.84804612346147 H 0.0 **** 0.06
29939 H 22.228922528156694 93.86616800046198 32.32090165173014 H 0.0 **** 0.06
29940 H 23.28179025624409 94.58732400045153 33.562116212601836 H 0.0 **** 0.06
29941 C 85.694970329545 24.41400047190607 70.73423583799683 C 0.0 **** -0.24
29942 H 85.25271715399285 24.583948676033557 71.71648461424547 H 0.0 **** 0.06
29943 H 85.50714656976227 25.27886332048645 70.09783788079477 H 0.0 **** 0.06
29944 H 85.24877618001469 23.527298486218836 70.28401896915699 H 0.0 **** 0.06
29945 H 86.76978942764745 24.267280979264484 70.84082927715957 H 0.0 **** 0.06
29946 C 5.810744287668609 84.76368992484112 60.18247163143516 C 0.0 **** -0.24
29947 H 5.770592112377946 85.2535541448115 59.209119816181214 H 0.0 **** 0.06
29948 H 6.7288733490208585 85.0498135593754 60.69622370083137 H 0.0 **** 0.06
29949 H 5.792177919383379 83.68258633122943 60.04531783027899 H 0.0 **** 0.06
29950 H 4.950987154953065 85.06923134922778 60.77792181770866 H 0.0 **** 0.06
29951 C 82.926714936044 86.85219156217318 10.074697910732766 C 0.0 **** -0.24
29952 H 82.03670649557498 87.47555778011656 10.159210541074344 H 0.0 **** 0.06
29953 H 82.64354785466229 85.80183902201367 10.156361288987569 H 0.0 **** 0.06
29954 H 83.62316137105059 87.10426635739117 10.873947864319746 H 0.0 **** 0.06
29955 H 83.40154042628755 87.02618281881041 9.109999732979247 H 0.0 **** 0.06
29956 C 98.3794682782202 13.971069391959048 54.281309806528206 C 0.0 **** -0.24
29957 H 97.74133226196562 13.79911583734949 53.41489060562003 H 0.0 **** 0.06
29958 H 97.91823496329414 13.530920868996347 55.1660205070661 H 0.0 **** 0.06
29959 H 98.5057525731134 15.04315319491343 54.43261236651661 H 0.0 **** 0.06
29960 H 99.3527145434548 13.5107556107221 54.112645151925605 H 0.0 **** 0.06
29961 C 88.78769186600182 64.3571682380112 65.32452550256988 C 0.0 **** -0.24
29962 H 89.44697234151597 64.8567842157875 66.03321084415859 H 0.0 **** 0.06
29963 H 88.77343842133958 63.28699068388548 65.53358472651968 H 0.0 **** 0.06
29964 H 89.15105592152256 64.52454393135686 64.31068488651357 H 0.0 **** 0.06
29965 H 87.77949685216251 64.75965554192128 65.41940761655508 H 0.0 **** 0.06
29966 C 25.17962361047684 71.64908949185448 89.28692033361997 C 0.0 **** -0.24
29967 H 26.043456918408552 72.001200222689 89.8504351024171 H 0.0 **** 0.06
29968 H 25.482540973405207 70.8337821503875 88.62850407670028 H 0.0 **** 0.06
29969 H 24.776700097778814 72.46774603748416 88.68954354208005 H 0.0 **** 0.06
29970 H 24.415040008614056 71.29290558991919 89.97824794830794 H 0.0 **** 0.06
29971 C 21.06457036069367 91.24570923142963 46.60518849002182 C 0.0 **** -0.24
29972 H 21.74640122740258 92.09112790626826 46.697176511214536 H 0.0 **** 0.06
29973 H 20.28206258791818 91.32586832356597 47.35971414655418 H 0.0 **** 0.06
29974 H 21.617728742329447 90.31771248024927 46.75179246446797 H 0.0 **** 0.06
29975 H 20.614856467637622 91.24758186994336 45.61227672565974 H 0.0 **** 0.06
29976 C 64.68161802726439 73.09273747962769 107.13199139574935 C 0.0 **** -0.24
29977 H 65.25516723404144 74.00997158776637 107.26299799395214 H 0.0 **** 0.06
29978 H 65.36152434419353 72.24045744729783 107.1037942907443 H 0.0 **** 0.06
29979 H 64.12378619833333 73.14359340045355 106.19724161082712 H 0.0 **** 0.06
29980 H 63.986728394861046 72.97760199139822 107.96401068362707 H 0.0 **** 0.06
29981 C 101.14334268956992 59.626627476576346 84.10951761238596 C 0.0 **** -0.24
29982 H 101.79610780969324 60.36106764823137 84.58037550115176 H 0.0 **** 0.06
29983 H 101.38290698546201 59.55508098810941 83.0481034795593 H 0.0 **** 0.06
29984 H 100.1045369574542 59.934523623282246 84.22746871916505 H 0.0 **** 0.06
29985 H 101.29063660083055 58.654279482830134 84.58041864848485 H 0.0 **** 0.06
29986 C 47.35672182348304 101.36346066555285 101.24370082757493 C 0.0 **** -0.24
29987 H 46.93969645470392 102.36320739011569 101.12804562310794 H 0.0 **** 0.06
29988 H 47.86141432733791 101.2897433783927 102.2076298504702 H 0.0 **** 0.06
29989 H 48.07153236364553 101.1727393346954 100.4432221404246 H 0.0 **** 0.06
29990 H 46.55382451707288 100.6269871509603 101.19658821578791 H 0.0 **** 0.06
29991 C 35.91341589915703 4.307809629871011 25.045867923969904 C 0.0 **** -0.24
29992 H 36.21651454537607 3.3184583190185943 24.702237176475755 H 0.0 **** 0.06
29993 H 36.17684406403288 5.050388946270171 24.29307884675447 H 0.0 **** 0.06
29994 H 36.4254127447615 4.539444510366154 25.980338587799103 H 0.0 **** 0.06
29995 H 34.835813100793814 4.3205419890314545 25.208987371421816 H 0.0 **** 0.06
29996 C 88.15642617721232 38.516606526763 99.31541884536227 C 0.0 **** -0.24
29997 H 87.16839088935308 38.91938772869872 99.09319728231128 H 0.0 **** 0.06
29998 H 88.57322418279324 39.03434608307964 100.17982736048737 H 0.0 **** 0.06
29999 H 88.8096845734629 38.66228697837592 98.45509998712572 H 0.0 **** 0.06
30000 H 88.0741248522024 37.45204065226329 99.53305345015201 H 0.0 **** 0.06
30001 C 97.44225293587863 69.00249761212612 30.990574989420587 C 0.0 **** -0.24
30002 H 97.21245394957589 68.36081993393553 30.139036308858856 H 0.0 **** 0.06
30003 H 97.06748324685515 70.00777912887246 30.79856559872671 H 0.0 **** 0.06
30004 H 98.52145074705078 69.03853686581841 31.1366334712664 H 0.0 **** 0.06
30005 H 96.9663646913942 68.60148103384063 31.885320726328487 H 0.0 **** 0.06
30006 C 52.60623149821157 106.55470496609405 40.93603180597307 C 0.0 **** -0.24
30007 H 53.11167958942764 106.9317300438754 41.82490421649277 H 0.0 **** 0.06
30008 H 51.67324225875751 107.09838187068812 40.79073445792886 H 0.0 **** 0.06
30009 H 52.3934356692767 105.49298871959456 41.062994151618 H 0.0 **** 0.06
30010 H 53.248791968288856 106.6954017844485 40.06647194824279 H 0.0 **** 0.06
30011 C 46.68737953607085 63.766157727062875 74.91160195693807 C 0.0 **** -0.24
30012 H 45.842982420838744 63.59799901215365 74.24284711228377 H 0.0 **** 0.06
30013 H 46.620833804370065 64.76963646351618 75.33376546742792 H 0.0 **** 0.06
30014 H 47.617570027615876 63.66761994095822 74.35291352171323 H 0.0 **** 0.06
30015 H 46.665844827563134 63.031284899206696 75.71511421508973 H 0.0 **** 0.06
30016 C 106.89658324665238 85.78516349110451 13.394864233425125 C 0.0 **** -0.24
30017 H 107.33515766147008 84.81755010247616 13.641734135901729 H 0.0 **** 0.06
30018 H 105.82999072676468 85.76752419323955 13.6219174947162 H 0.0 **** 0.06
30019 H 107.03966533975789 85.98868167635825 12.334221190517553 H 0.0 **** 0.06
30020 H 107.38092204181353 86.56392467218495 13.983775776994037 H 0.0 **** 0.06
30021 C 19.051191941867852 95.79943847405573 79.33781377674005 C 0.0 **** -0.24
30022 H 18.06641495674668 96.26175435587169 79.26761979203789 H 0.0 **** 0.06
30023 H 19.568893865007272 95.90023216675752 78.38383200478697 H 0.0 **** 0.06
30024 H 18.939365177713412 94.74254537591722 79.57976545701975 H 0.0 **** 0.06
30025 H 19.628098328859828 96.29256115753014 80.1192751207541 H 0.0 **** 0.06
30026 C 79.88412645875538 106.77745269101939 90.34567246360439 C 0.0 **** -0.24
30027 H 80.17384512048346 106.04913467831545 89.58757492240849 H 0.0 **** 0.06
30028 H 80.54169704726904 106.68323928448865 91.2091819077256 H 0.0 **** 0.06
30029 H 78.85374678347168 106.59263089631361 90.65055855167569 H 0.0 **** 0.06
30030 H 79.9667992093536 107.78301039175437 89.93244150909852 H 0.0 **** 0.06
30031 C 68.4002653498701 97.82626865266977 97.45927091959967 C 0.0 **** -0.24
30032 H 67.86998075535396 98.10500020002996 98.36949001489849 H 0.0 **** 0.06
30033 H 67.67777729616711 97.56401544523413 96.68474573780263 H 0.0 **** 0.06
30034 H 69.04325429944589 96.96997106771607 97.66174931108272 H 0.0 **** 0.06
30035 H 69.0077734498486 98.6651854624076 97.12101167474762 H 0.0 **** 0.06
30036 C 44.46656852092741 102.52163905609159 52.02105373209855 C 0.0 **** -0.24
30037 H 43.99482386768818 101.73063436727305 51.438964927851714 H 0.0 **** 0.06
30038 H 44.5235966985197 103.43015260341326 51.42093639467129 H 0.0 **** 0.06
30039 H 45.47171647141636 102.21053268963124 52.30771616125239 H 0.0 **** 0.06
30040 H 43.876722933906365 102.71328161237959 52.91751130848408 H 0.0 **** 0.06
30041 C 104.38335746090316 45.780050229209905 88.76837545138362 C 0.0 **** -0.24
30042 H 104.27512921616824 45.299542925336084 87.79557368175948 H 0.0 **** 0.06
30043 H 104.41904519428226 45.017966221602364 89.54723823944471 H 0.0 **** 0.06
30044 H 103.53387629234831 46.439554616388705 88.94306237197546 H 0.0 **** 0.06
30045 H 105.3048690951841 46.36118208589846 88.78519480613646 H 0.0 **** 0.06
30046 C 63.990650846250475 106.39079398924571 10.797109627991148 C 0.0 **** -0.24
30047 H 63.18859267607404 105.65673081485062 10.874348293473005 H 0.0 **** 0.06
30048 H 63.57633271903991 107.39435510831314 10.89991281635966 H 0.0 **** 0.06
30049 H 64.47685183001803 106.29613238861177 9.825320181371353 H 0.0 **** 0.06
30050 H 64.72038848118112 106.21516507634698 11.586581134372665 H 0.0 **** 0.06
30051 C 87.10767268544578 81.64710850244853 12.182553810108772 C 0.0 **** -0.24
30052 H 87.1567081563972 82.3775952694052 11.373758674487704 H 0.0 **** 0.06
30053 H 86.69339151600298 80.71254131331447 11.802748328121723 H 0.0 **** 0.06
30054 H 86.4689697030858 82.03040590090056 12.979030127397223 H 0.0 **** 0.06
30055 H 88.10957343273287 81.46919231056066 12.572913351517158 H 0.0 **** 0.06
30056 C 63.82414556140873 27.618213361372312 34.839777508551435 C 0.0 **** -0.24
30057 H 64.63932383530349 27.6319188571253 35.56350219600802 H 0.0 **** 0.06
30058 H 63.40136921717334 28.61942069701371 34.74988894811054 H 0.0 **** 0.06
30059 H 63.051989205677415 26.926752663656544 35.175977587445175 H 0.0 **** 0.06
30060 H 64.20477575792495 27.295631458866694 33.87043110183561 H 0.0 **** 0.06
30061 C 99.28398022105856 76.87871037142195 75.57134653141748 C 0.0 **** -0.24
30062 H 98.76066030546538 75.95850700143268 75.83039260707972 H 0.0 **** 0.06
30063 H 99.60941922602399 77.38033148283269 76.48352614774927 H 0.0 **** 0.06
30064 H 98.61266355554415 77.53468789057219 75.0168031953786 H 0.0 **** 0.06
30065 H 100.15218375814166 76.64229303568605 74.95667808872844 H 0.0 **** 0.06
30066 C 35.763431814990724 15.190336393802621 12.125877744635282 C 0.0 **** -0.24
30067 H 35.83393450084867 15.83653045050933 11.249510471569746 H 0.0 **** 0.06
30068 H 36.75055117591549 15.079115976136293 12.574783367952652 H 0.0 **** 0.06
30069 H 35.38786488037141 14.212240128559415 11.825737740267972 H 0.0 **** 0.06
30070 H 35.08188011322159 15.634764013489239 12.850156115120765 H 0.0 **** 0.06
30071 C 34.48340175920967 44.717972250862346 17.67940139223391 C 0.0 **** -0.24
30072 H 33.867565774771236 45.12104990509613 16.87629664258316 H 0.0 **** 0.06
30073 H 33.87229010759111 44.58005659700909 18.571949281938036 H 0.0 **** 0.06
30074 H 35.29489691735682 45.41275067496309 17.899015783577894 H 0.0 **** 0.06
30075 H 34.89956788268782 43.75893169316578 17.37164043262874 H 0.0 **** 0.06
30076 C 41.002058426383016 82.20014656980084 53.31817384728355 C 0.0 **** -0.24
30077 H 40.39014026512615 82.00551093990094 52.43798469308461 H 0.0 **** 0.06
30078 H 42.03458404067932 81.91818229414403 53.11260182820474 H 0.0 **** 0.06
30079 H 40.62618573638609 81.6165468681653 54.15873436727865 H 0.0 **** 0.06
30080 H 40.95730199789691 83.26202351631275 53.56380602351434 H 0.0 **** 0.06
30081 C 45.92146982247258 51.15250765655793 81.61139628064396 C 0.0 **** -0.24
30082 H 44.85190040790059 51.02724946756621 81.77270157254799 H 0.0 **** 0.06
30083 H 46.37660630954465 50.180415998543936 81.4196295246661 H 0.0 **** 0.06
30084 H 46.373254420965544 51.59749452650152 82.49817824111022 H 0.0 **** 0.06
30085 H 46.08582188175178 51.80624026610781 80.75397047556766 H 0.0 **** 0.06
30086 C 31.495581200053607 5.687312813905166 101.23115442489876 C 0.0 **** -0.24
30087 H 31.687932856160558 5.959106096283961 102.26858831083149 H 0.0 **** 0.06
30088 H 32.02154832100939 4.762114237794393 100.99510134131395 H 0.0 **** 0.06
30089 H 31.84855575848752 6.4837051418477785 100.57580864235575 H 0.0 **** 0.06
30090 H 30.425003961480172 5.544167110822855 101.08632859014102 H 0.0 **** 0.06
30091 C 49.27539291600719 0.72258303242495 8.23326178402192 C 0.0 **** -0.24
30092 H 48.447988840835535 0.03196450245451388 8.399287251919986 H 0.0 **** 0.06
30093 H 48.88042998727518 1.7089821727964392 7.986221344949058 H 0.0 **** 0.06
30094 H 49.8904313332126 0.360617545538247 7.40939189591063 H 0.0 **** 0.06
30095 H 49.8795594218746 0.7893535544642987 9.137334972737563 H 0.0 **** 0.06
30096 C 10.431737947598691 78.32838087286777 100.95435015564182 C 0.0 **** -0.24
30097 H 9.795610591877733 79.10592084454566 101.37710000510098 H 0.0 **** 0.06
30098 H 9.957519975553339 77.9153775843971 100.06399603164766 H 0.0 **** 0.06
30099 H 10.577268720298065 77.53764670443007 101.68940393944145 H 0.0 **** 0.06
30100 H 11.39764665095828 78.757374845091 100.68549244006303 H 0.0 **** 0.06
30101 C 7.548970535026825 68.37973609382323 13.840541523638223 C 0.0 **** -0.24
30102 H 8.630257569766242 68.4816604265344 13.754358071012504 H 0.0 **** 0.06
30103 H 7.30582494962214 67.85539879517557 14.765263393859328 H 0.0 **** 0.06
30104 H 7.168481704328951 67.812745062825 12.990747255243548 H 0.0 **** 0.06
30105 H 7.090667418246486 69.36842256930356 13.851548246609894 H 0.0 **** 0.06
30106 C 38.83808231573846 99.23048177617842 58.29115834778281 C 0.0 **** -0.24
30107 H 39.286386961819915 98.2482777860061 58.435266114336905 H 0.0 **** 0.06
30108 H 37.848922038295015 99.24987507886947 58.749826814753824 H 0.0 **** 0.06
30109 H 38.74765142311266 99.43554481541668 57.22404527534974 H 0.0 **** 0.06
30110 H 39.46919409777449 99.98932531458931 58.754618494565435 H 0.0 **** 0.06
30111 C 31.302891481268695 19.352807881847838 82.97650765510133 C 0.0 **** -0.24
30112 H 31.524728001588542 18.95313962013907 81.98697811901906 H 0.0 **** 0.06
30113 H 31.98912482306077 18.92195477208429 83.704970569377 H 0.0 **** 0.06
30114 H 30.277719218573196 19.099501830864227 83.24893342823088 H 0.0 **** 0.06
30115 H 31.417803507249175 20.436765953464402 82.96471787908422 H 0.0 **** 0.06
30116 C 106.35930742997954 61.82241765329553 88.04903589495268 C 0.0 **** -0.24
30117 H 107.3897310703898 61.46600644561539 88.06871048467156 H 0.0 **** 0.06
30118 H 106.10799016506334 62.14992855368337 87.04013098554015 H 0.0 **** 0.06
30119 H 106.25061811291378 62.65854193394631 88.74040824263807 H 0.0 **** 0.06
30120 H 105.69007981402571 61.01496694597978 88.34616317044015 H 0.0 **** 0.06
30121 C 48.374505344073214 87.54837405542645 11.085229664792124 C 0.0 **** -0.24
30122 H 47.47226335923628 87.3769599596011 10.498675796432536 H 0.0 **** 0.06
30123 H 49.033951221803335 88.22920638308506 10.54577122856739 H 0.0 **** 0.06
30124 H 48.88704852433074 86.60076421419694 11.248826446949082 H 0.0 **** 0.06
30125 H 48.10639314445851 87.98659366117766 12.045821262329198 H 0.0 **** 0.06
30126 C 57.17387575159083 46.16611095943129 32.51296309605908 C 0.0 **** -0.24
30127 H 57.394574443561 45.12945940061454 32.768103280187006 H 0.0 **** 0.06
30128 H 56.71029602686127 46.2072767464943 31.527506317978236 H 0.0 **** 0.06
30129 H 58.09953233188375 46.74186646189303 32.503615588365506 H 0.0 **** 0.06
30130 H 56.49293195824069 46.58500154299841 33.25359665746606 H 0.0 **** 0.06
30131 C 49.11730153127302 64.44081964458942 90.76160287572806 C 0.0 **** -0.24
30132 H 48.132604533296764 64.87171311621387 90.9416875309776 H 0.0 **** 0.06
30133 H 49.005129341478 63.42273824456447 90.38707572378057 H 0.0 **** 0.06
30134 H 49.683608683817674 64.42628735539478 91.69283264594893 H 0.0 **** 0.06
30135 H 49.646882715690445 65.04353954493348 90.02379642865232 H 0.0 **** 0.06
30136 C 1.9379658615262088 106.37382947678668 37.70502531770376 C 0.0 **** -0.24
30137 H 1.8995539292899366 105.39546686708263 38.184670000475194 H 0.0 **** 0.06
30138 H 1.8278701468851466 106.2541596358175 36.62750460054525 H 0.0 **** 0.06
30139 H 2.8957147766173534 106.8461796643686 37.9227181372346 H 0.0 **** 0.06
30140 H 1.1297233096003652 106.99786371396223 38.08634291525169 H 0.0 **** 0.06
30141 C 94.89681111145605 107.40655632462956 38.38395679462356 C 0.0 **** -0.24
30142 H 95.9005750761972 107.01377976350929 38.54394524806241 H 0.0 **** 0.06
30143 H 94.69977596223936 108.20287875967155 39.102145923424736 H 0.0 **** 0.06
30144 H 94.16864153887443 106.60645320672798 38.51860432930999 H 0.0 **** 0.06
30145 H 94.81916938328476 107.8027166686839 37.37115788150802 H 0.0 **** 0.06
30146 C 94.88482660073399 14.298401397751377 55.915239022669496 C 0.0 **** -0.24
30147 H 94.37294478249386 13.402603916952614 55.56438618359169 H 0.0 **** 0.06
30148 H 94.58585976208907 15.150299124555374 55.303553634886654 H 0.0 **** 0.06
30149 H 95.96261579616176 14.154662998806145 55.83762074685247 H 0.0 **** 0.06
30150 H 94.61653239856753 14.485678848784517 56.95520164904246 H 0.0 **** 0.06
30151 C 64.02040943373629 32.18164820756019 39.42654087486545 C 0.0 **** -0.24
30152 H 64.23740140592787 32.62773125379917 40.39744781920933 H 0.0 **** 0.06
30153 H 64.86593997157112 32.338962063616606 38.757154360180664 H 0.0 **** 0.06
30154 H 63.13073400459831 32.648723530726386 39.00394988507304 H 0.0 **** 0.06
30155 H 63.845922183843896 31.112997599842515 39.549341174965775 H 0.0 **** 0.06
30156 C 85.24159676391753 56.750293038035295 71.18011178807046 C 0.0 **** -0.24
30157 H 85.2170110111781 56.68693837432107 72.26821546636958 H 0.0 **** 0.06
30158 H 85.18919390656515 57.795537157791046 70.8756408894422 H 0.0 **** 0.06
30159 H 84.39125485337058 56.20799794683529 70.76662474563506 H 0.0 **** 0.06
30160 H 86.16757357628694 56.30939298661582 70.81117555660742 H 0.0 **** 0.06
30161 C 64.10423345516018 91.40176724464162 21.284372768236608 C 0.0 **** -0.24
30162 H 63.52996057864472 92.10970853612288 21.88154077520855 H 0.0 **** 0.06
30163 H 64.09200468725723 91.7143704714727 20.240144080578887 H 0.0 **** 0.06
30164 H 63.661815109218054 90.40959395843936 21.37193432431485 H 0.0 **** 0.06
30165 H 65.13268936046417 91.37363347114787 21.643018494922956 H 0.0 **** 0.06
30166 C 20.073185002386907 51.29073459083696 2.2068889020544056 C 0.0 **** -0.24
30167 H 19.720954897411644 52.12429550502014 2.8139391339236344 H 0.0 **** 0.06
30168 H 19.703250134197702 51.40216476538984 1.1874285566341571 H 0.0 **** 0.06
30169 H 19.706111278116822 50.35449994878712 2.6271203001308274 H 0.0 **** 0.06
30170 H 21.16350810068613 51.28288038748144 2.1989669655036517 H 0.0 **** 0.06
30171 C 44.25479932552834 109.14848469772276 44.10776037619553 C 0.0 **** -0.24
30172 H 43.73260467930791 108.83754831399978 43.20299567009954 H 0.0 **** 0.06
30173 H 45.325450546694896 109.20172569396428 43.907989836426225 H 0.0 **** 0.06
30174 H 44.06875100396431 108.42400928335476 44.90061487676411 H 0.0 **** 0.06
30175 H 43.89227034004196 110.12858984751877 44.41751267607498 H 0.0 **** 0.06
30176 C 35.494938158347196 50.485380655753666 102.05032613901689 C 0.0 **** -0.24
30177 H 35.7927918454142 49.448491004133 102.20331258659431 H 0.0 **** 0.06
30178 H 35.55477000714757 50.72769059339881 100.98965000138706 H 0.0 **** 0.06
30179 H 36.16050734809792 51.140754186327754 102.61216157315383 H 0.0 **** 0.06
30180 H 34.47022127865807 50.62385257329759 102.39770460189219 H 0.0 **** 0.06
30181 C 69.99174303561882 88.91099486966931 0.7768729142370603 C 0.0 **** -0.24
30182 H 69.77287501977176 88.45530183635076 -0.18897828055196442 H 0.0 **** 0.06
30183 H 71.02967966532186 89.24434653047965 0.7943118897032093 H 0.0 **** 0.06
30184 H 69.83095968674598 88.17852096004962 1.5688139606531308 H 0.0 **** 0.06
30185 H 69.33247854432997 89.76560808032923 0.9333258522702863 H 0.0 **** 0.06
30186 C 99.30922102782438 76.36771024789641 21.051473997321498 C 0.0 **** -0.24
30187 H 99.26209394189249 77.38173451865805 20.655749815664052 H 0.0 **** 0.06
30188 H 98.40941816992446 75.82348828913825 20.761118628417815 H 0.0 **** 0.06
30189 H 99.37570860896541 76.4051448725711 22.138804174441574 H 0.0 **** 0.06
30190 H 100.18610560925694 75.86075198855121 20.649708418757466 H 0.0 **** 0.06
30191 C 43.243295425364394 13.343095229529695 80.78463319897307 C 0.0 **** -0.24
30192 H 43.442866998183845 12.368200312589465 80.33909646227025 H 0.0 **** 0.06
30193 H 42.60977065954923 13.924733552849602 80.11523340964473 H 0.0 **** 0.06
30194 H 44.18548511367564 13.869555177171321 80.94248269089499 H 0.0 **** 0.06
30195 H 42.736925452915784 13.208994433427392 81.74087706178875 H 0.0 **** 0.06
30196 C 94.87065384807467 35.05374037738471 78.01524323911252 C 0.0 **** -0.24
30197 H 94.64867183305304 34.14102846693035 78.56770481119767 H 0.0 **** 0.06
30198 H 95.21403878608321 34.79748552459688 77.01258669891013 H 0.0 **** 0.06
30199 H 95.64976604586859 35.61230832665004 78.534645710073 H 0.0 **** 0.06
30200 H 93.97013872729369 35.664139191361585 77.9460357362693 H 0.0 **** 0.06
30201 C 44.7799984817114 4.377785565602892 35.3945717887687 C 0.0 **** -0.24
30202 H 44.50741827797029 5.246608259350978 34.79544573959066 H 0.0 **** 0.06
30203 H 45.3413924731945 4.704039289021267 36.27031785874783 H 0.0 **** 0.06
30204 H 45.39550561895692 3.704011623974239 34.797988572364915 H 0.0 **** 0.06
30205 H 43.876598838044686 3.8582428897322387 35.713508050297946 H 0.0 **** 0.06
30206 C 6.755399555823729 91.90636689790563 62.18451010701938 C 0.0 **** -0.24
30207 H 6.454208099069902 92.8886394750794 61.821218038833365 H 0.0 **** 0.06
30208 H 6.3340962492033555 91.74081235850201 63.17712442535577 H 0.0 **** 0.06
30209 H 7.843006791286996 91.85621636307911 62.23834595457805 H 0.0 **** 0.06
30210 H 6.389335483604526 91.13905763216772 61.502089806194704 H 0.0 **** 0.06
30211 C 101.1519717413256 8.614016090444707 83.81529362684239 C 0.0 **** -0.24
30212 H 100.28862163626876 8.871217341625254 83.20309522178815 H 0.0 **** 0.06
30213 H 100.96135526449639 8.900568360719419 84.85095291631953 H 0.0 **** 0.06
30214 H 102.02980368005531 9.145037112141864 83.447332190653 H 0.0 **** 0.06
30215 H 101.32832971908874 7.539649903973213 83.76219910350429 H 0.0 **** 0.06
30216 C 103.62151515325849 28.87779149944612 103.68822922790372 C 0.0 **** -0.24
30217 H 102.84539088599479 29.601895472850885 103.4432468777363 H 0.0 **** 0.06
30218 H 103.37575933126254 28.3868969908155 104.63026030755867 H 0.0 **** 0.06
30219 H 104.57867964655145 29.390278568957626 103.78452563786743 H 0.0 **** 0.06
30220 H 103.68575503980338 28.132902140193067 102.89523368616253 H 0.0 **** 0.06
30221 C 80.90956538622095 13.43157682458974 94.54137770960796 C 0.0 **** -0.24
30222 H 80.98227207877983 13.084775432493757 93.51017868149935 H 0.0 **** 0.06
30223 H 80.15945421970912 14.21995905924689 94.60648969500384 H 0.0 **** 0.06
30224 H 81.8759484938995 13.820838765013548 94.86213104823325 H 0.0 **** 0.06
30225 H 80.62127153067246 12.600051009387641 95.18387152078267 H 0.0 **** 0.06
30226 C 4.71157833695645 70.51997540836624 98.64531831226552 C 0.0 **** -0.24
30227 H 4.527708209434024 71.55075656679799 98.34132016393221 H 0.0 **** 0.06
30228 H 3.797482203958225 69.93908454277704 98.52963408542743 H 0.0 **** 0.06
30229 H 5.026328352405585 70.50008136129145 99.68840051772455 H 0.0 **** 0.06
30230 H 5.496169392442937 70.09292345129012 98.02125394798102 H 0.0 **** 0.06
30231 C 67.10373063158927 27.587599346887217 5.556561784025547 C 0.0 **** -0.24
30232 H 66.12863202647388 27.320290409718083 5.963183821649878 H 0.0 **** 0.06
30233 H 67.00467736167127 27.81713570457515 4.495435781803579 H 0.0 **** 0.06
30234 H 67.7930295191997 26.752380892732376 5.685286683272736 H 0.0 **** 0.06
30235 H 67.48936806944491 28.46139836909545 6.08319635570497 H 0.0 **** 0.06
30236 C 32.9415021462454 108.70836905277068 42.315514189506985 C 0.0 **** -0.24
30237 H 32.40634351594531 109.62758847696597 42.55307836764638 H 0.0 **** 0.06
30238 H 32.325868215645755 107.84953837640292 42.58695424511333 H 0.0 **** 0.06
30239 H 33.875917510251384 108.67670477366151 42.87537233062466 H 0.0 **** 0.06
30240 H 33.15705126451883 108.67750606963848 41.24751282520066 H 0.0 **** 0.06
30241 C 33.10588099260917 78.3675712384416 55.74213494219191 C 0.0 **** -0.24
30242 H 32.79300532418347 78.89942438098115 54.84281909954774 H 0.0 **** 0.06
30243 H 33.46623924716789 79.08424229053594 56.48040617654365 H 0.0 **** 0.06
30244 H 33.90629567457384 77.67058668879008 55.490918282652274 H 0.0 **** 0.06
30245 H 32.25951528968079 77.8170158899371 56.151127240426774 H 0.0 **** 0.06
30246 C 26.48094342865549 39.19069561489374 92.45807072882172 C 0.0 **** -0.24
30247 H 26.10447695199422 38.8859560400045 91.48143023073533 H 0.0 **** 0.06
30248 H 25.65547855451253 39.22930649716649 93.16931318866426 H 0.0 **** 0.06
30249 H 26.94023256683672 40.175359219999294 92.37883140446098 H 0.0 **** 0.06
30250 H 27.22328771265714 38.469963271376 92.80166749895551 H 0.0 **** 0.06
30251 C 65.46657611754824 14.026955504648171 109.64800142533579 C 0.0 **** -0.24
30252 H 66.01928036010943 14.79749416593856 110.1858425487049 H 0.0 **** 0.06
30253 H 66.06321042907786 13.671509670524799 108.80881280302728 H 0.0 **** 0.06
30254 H 64.5292146457137 14.442412623117278 109.27817888266168 H 0.0 **** 0.06
30255 H 65.25457040177162 13.195756697697973 110.32131118815752 H 0.0 **** 0.06
30256 C 99.71637849593897 41.89735590965938 85.22552951184304 C 0.0 **** -0.24
30257 H 100.29067790937336 40.99778176808053 85.00842051594753 H 0.0 **** 0.06
30258 H 99.80847568725359 42.59785681382925 84.39497216954351 H 0.0 **** 0.06
30259 H 100.09821736865499 42.36113593568544 86.1359750678044 H 0.0 **** 0.06
30260 H 98.66745123549562 41.63419704412456 85.36522533273504 H 0.0 **** 0.06
30261 C 47.57561283610522 77.37374017298242 54.617606288493974 C 0.0 **** -0.24
30262 H 46.591673628847616 77.0884606461272 54.24306099663245 H 0.0 **** 0.06
30263 H 47.47975242984762 78.25392362246373 55.25442400794747 H 0.0 **** 0.06
30264 H 48.23075223250828 77.60308689198331 53.776258919744755 H 0.0 **** 0.06
30265 H 47.997780079846336 76.55118917162315 55.19308993507247 H 0.0 **** 0.06
30266 C 101.65423530985804 16.76412667831545 18.15808944623525 C 0.0 **** -0.24
30267 H 101.77996139079413 16.970743638230672 17.095866219210773 H 0.0 **** 0.06
30268 H 101.53608412846738 15.690445950332588 18.30797910978072 H 0.0 **** 0.06
30269 H 100.76808248365651 17.28199297899839 18.52644332202805 H 0.0 **** 0.06
30270 H 102.53106075098431 17.113511143449102 18.703014662606165 H 0.0 **** 0.06
30271 C 17.957110596427242 53.961044332965514 91.77579711729123 C 0.0 **** -0.24
30272 H 16.87566532938348 54.061031440481884 91.8707212834629 H 0.0 **** 0.06
30273 H 18.43947027809554 54.86841552160263 92.13755458493222 H 0.0 **** 0.06
30274 H 18.216757722438558 53.80320982958892 90.72944561941125 H 0.0 **** 0.06
30275 H 18.295617579818952 53.10873918331947 92.36609694357736 H 0.0 **** 0.06
30276 C 99.85651742363899 26.058747970140757 73.79563391187668 C 0.0 **** -0.24
30277 H 98.93315819730611 26.627175845176296 73.68312895149052 H 0.0 **** 0.06
30278 H 100.01101607863092 25.821920617299185 74.84861485413943 H 0.0 **** 0.06
30279 H 100.69497598724314 26.651719372325203 73.4289268541909 H 0.0 **** 0.06
30280 H 99.78694607501438 25.134678064954556 73.22100051305137 H 0.0 **** 0.06
30281 C 57.177476208290614 90.078433058695 76.58519541215469 C 0.0 **** -0.24
30282 H 56.12501223687994 89.79533897865906 76.60355833416838 H 0.0 **** 0.06
30283 H 57.78353512351123 89.2092348627719 76.32606794768401 H 0.0 **** 0.06
30284 H 57.47243665699369 90.44646165500637 77.56822602392788 H 0.0 **** 0.06
30285 H 57.32981352536734 90.86225475495837 75.84284119624172 H 0.0 **** 0.06
30286 C 19.456537765041546 28.883737050622074 96.10903420803368 C 0.0 **** -0.24
30287 H 18.808972826828153 29.50975086363465 95.49495014908126 H 0.0 **** 0.06
30288 H 19.292241720334232 29.114114306211178 97.16198341200723 H 0.0 **** 0.06
30289 H 20.49795690363038 29.076623012670666 95.8524917738911 H 0.0 **** 0.06
30290 H 19.225719232405353 27.83392655801518 95.9263551724002 H 0.0 **** 0.06
30291 C 19.682681418000897 59.46366715158484 22.571741763532856 C 0.0 **** -0.24
30292 H 20.127693040175586 59.034405302165 21.673461273424664 H 0.0 **** 0.06
30293 H 19.8005510471003 58.76884461325699 23.40336262795526 H 0.0 **** 0.06
30294 H 18.621783679115055 59.64742131219117 22.39858773856136 H 0.0 **** 0.06
30295 H 20.17956496154153 60.40367262683003 22.808455169208088 H 0.0 **** 0.06
30296 C 68.70279940146926 58.146943399293974 35.58318036937138 C 0.0 **** -0.24
30297 H 69.66151390064393 58.62787819613817 35.779160292123294 H 0.0 **** 0.06
30298 H 67.95171350444028 58.90771118116169 35.37033012704168 H 0.0 **** 0.06
30299 H 68.40084605500508 57.570628145146 36.457497102601934 H 0.0 **** 0.06
30300 H 68.79936463945862 57.48220131907948 34.724982859772894 H 0.0 **** 0.06
30301 C 28.547277967126476 101.09705936976535 43.03041761285186 C 0.0 **** -0.24
30302 H 29.31750172968237 101.74074183359835 42.604423303887415 H 0.0 **** 0.06
30303 H 28.342270239810446 100.27471568685057 42.3446468167017 H 0.0 **** 0.06
30304 H 27.637167591493238 101.67515226194791 43.18771838387457 H 0.0 **** 0.06
30305 H 28.894845828569316 100.69790970677134 43.983216638875376 H 0.0 **** 0.06
30306 C 107.16427981649089 70.42305297962963 59.94954609034417 C 0.0 **** -0.24
30307 H 107.9481097342416 69.72821618060706 59.648021056206275 H 0.0 **** 0.06
30308 H 106.46632676507336 69.91500496104013 60.61539640174664 H 0.0 **** 0.06
30309 H 106.63292041851258 70.77597327319573 59.06605455800561 H 0.0 **** 0.06
30310 H 107.61003638057953 71.2708046130698 60.46854421118749 H 0.0 **** 0.06
30311 C 12.225529016717417 51.73379406494405 39.153102864148195 C 0.0 **** -0.24
30312 H 12.003162356430252 52.67407971323871 39.657143347107706 H 0.0 **** 0.06
30313 H 12.767471202682302 51.0763667732582 39.8327659234871 H 0.0 **** 0.06
30314 H 12.835522546423817 51.92931736779724 38.27156820146405 H 0.0 **** 0.06
30315 H 11.293775438908341 51.25588348435815 38.850855281300994 H 0.0 **** 0.06
30316 C 39.39996671451931 63.27572839438881 19.99191124444586 C 0.0 **** -0.24
30317 H 39.64523889194204 62.3296326756159 20.474939542259833 H 0.0 **** 0.06
30318 H 38.69124338647525 63.096941863196236 19.182472827800268 H 0.0 **** 0.06
30319 H 40.30857757059471 63.722349767261306 19.586709343102072 H 0.0 **** 0.06
30320 H 38.955290374271726 63.95184289694956 20.721483686144097 H 0.0 **** 0.06
30321 C 107.72547394396248 93.3402668727448 19.204393212001378 C 0.0 **** -0.24
30322 H 108.76206432659853 93.52963034077926 19.482412451702174 H 0.0 **** 0.06
30323 H 107.08911294985768 93.44728981062318 20.083011816984452 H 0.0 **** 0.06
30324 H 107.63411692395603 92.3285599977126 18.810069839842697 H 0.0 **** 0.06
30325 H 107.41721459157188 94.05744961482637 18.443154099121045 H 0.0 **** 0.06
30326 C 36.53902505738915 70.32294787140013 17.18328431312453 C 0.0 **** -0.24
30327 H 37.284502474610946 70.24861638329646 16.391161756818747 H 0.0 **** 0.06
30328 H 36.827735539795626 69.67870320127632 18.01433423496195 H 0.0 **** 0.06
30329 H 35.56865391520503 70.00879557920969 16.798528469418443 H 0.0 **** 0.06
30330 H 36.47690560198622 71.3549230576299 17.527866995739345 H 0.0 **** 0.06
30331 C 96.71998214589534 88.32024935915828 69.29897543790901 C 0.0 **** -0.24
30332 H 96.4509453339349 87.31232341525788 68.98142166300806 H 0.0 **** 0.06
30333 H 95.81355595206188 88.89616555838256 69.48573987034683 H 0.0 **** 0.06
30334 H 97.30459856578045 88.80369417412082 68.51565834739387 H 0.0 **** 0.06
30335 H 97.31260577642497 88.26639880992191 70.21317142408458 H 0.0 **** 0.06
30336 C 28.51142925416039 59.15295101520999 79.15431366694438 C 0.0 **** -0.24
30337 H 29.201178520705184 59.36248001184393 79.97183027633005 H 0.0 **** 0.06
30338 H 27.577073729204614 59.68886931245305 79.32033227902127 H 0.0 **** 0.06
30339 H 28.313717358520478 58.081822999572694 79.11216336797806 H 0.0 **** 0.06
30340 H 28.95475742315628 59.47764889597005 78.21281045467099 H 0.0 **** 0.06
30341 C 8.93329895094248 9.785410155183415 106.6847937113422 C 0.0 **** -0.24
30342 H 8.06823953937504 10.388509018616505 106.40931625154688 H 0.0 **** 0.06
30343 H 8.805453802469671 8.77116014233936 106.3056928994116 H 0.0 **** 0.06
30344 H 9.027427745133332 9.758563183957836 107.76961664173282 H 0.0 **** 0.06
30345 H 9.833472138544153 10.22340392561817 106.2520898678745 H 0.0 **** 0.06
30346 C 27.109868829433296 25.478755475537703 48.08612771743611 C 0.0 **** -0.24
30347 H 26.481885348909138 26.147178785950867 47.49690203793982 H 0.0 **** 0.06
30348 H 26.550208989343407 25.123509324173053 48.95167374322611 H 0.0 **** 0.06
30349 H 27.99696218670485 26.016920461351148 48.421677622449046 H 0.0 **** 0.06
30350 H 27.41062575188881 24.628387243338327 47.47435080206982 H 0.0 **** 0.06
30351 C 82.11069250645824 96.43180179493216 50.73527473592458 C 0.0 **** -0.24
30352 H 81.93904214284953 97.40782229547375 50.2806220855056 H 0.0 **** 0.06
30353 H 81.52073570931225 96.34701945822682 51.647640766495044 H 0.0 **** 0.06
30354 H 83.16824857231933 96.32309031549246 50.9726979262893 H 0.0 **** 0.06
30355 H 81.81270947755888 95.64936590527729 50.03628394199859 H 0.0 **** 0.06
30356 C 78.53380710723178 98.02545088061322 49.985474755310435 C 0.0 **** -0.24
30357 H 79.21252681563266 98.65074255016766 50.56672669567482 H 0.0 **** 0.06
30358 H 77.5607854247391 97.99221352469635 50.47692160999895 H 0.0 **** 0.06
30359 H 78.9407598985362 97.01622703429217 49.91550645255245 H 0.0 **** 0.06
30360 H 78.4222326871131 98.44339523754142 48.984803708077806 H 0.0 **** 0.06
30361 C 2.8119357502227444 36.47336187497533 41.44564734906248 C 0.0 **** -0.24
30362 H 2.720273132477587 37.55080765804244 41.584630935968136 H 0.0 **** 0.06
30363 H 1.9550930423056343 35.97483538892737 41.89821309153497 H 0.0 **** 0.06
30364 H 3.729106477591074 36.12422630451578 41.91977081731085 H 0.0 **** 0.06
30365 H 2.8446418470521166 36.2463956477316 40.380400209560065 H 0.0 **** 0.06
30366 C 68.11083369127209 56.55351020758762 53.1607509426658 C 0.0 **** -0.24
30367 H 67.36664915340197 57.281657477427714 52.83617606293947 H 0.0 **** 0.06
30368 H 67.63542289485088 55.80565960863182 53.79569734747335 H 0.0 **** 0.06
30369 H 68.89445929483298 57.061630250690385 53.72175784382458 H 0.0 **** 0.06
30370 H 68.5459160409211 56.06625444094784 52.28767988421359 H 0.0 **** 0.06
30371 C 0.8190481723918879 28.849259171582332 99.4986648012607 C 0.0 **** -0.24
30372 H 1.1883358232373382 28.216560819226807 98.6911375120616 H 0.0 **** 0.06
30373 H 1.1379194054849506 28.43836491516246 100.45601314793649 H 0.0 **** 0.06
30374 H -0.2700758684073321 28.88425047929165 99.46267416899094 H 0.0 **** 0.06
30375 H 1.2196633690928422 29.856128224485985 99.3826259285081 H 0.0 **** 0.06
30376 C 14.250831943064629 24.03333534840627 80.58447360423088 C 0.0 **** -0.24
30377 H 13.2405765267814 23.632234874369686 80.50141771060905 H 0.0 **** 0.06
30378 H 14.820259925661691 23.769413115053965 79.69264304392192 H 0.0 **** 0.06
30379 H 14.737310676544084 23.612879601636507 81.46425268910043 H 0.0 **** 0.06
30380 H 14.203858225382934 25.118298775002813 80.67785290926783 H 0.0 **** 0.06
30381 C 9.566122397151219 89.2813310168412 27.657437149878604 C 0.0 **** -0.24
30382 H 10.564650849939852 88.84363332795408 27.650614078693508 H 0.0 **** 0.06
30383 H 9.209972340954707 89.35858127104359 28.68562803312568 H 0.0 **** 0.06
30384 H 8.888072743803036 88.64809067464284 27.084466604054427 H 0.0 **** 0.06
30385 H 9.602046652185024 90.27363554494482 27.209190594556915 H 0.0 **** 0.06
30386 C 20.596254325148227 93.43912963060451 64.51740381162905 C 0.0 **** -0.24
30387 H 19.966269687991584 92.73110079493905 65.05641254860204 H 0.0 **** 0.06
30388 H 20.286008960809585 93.47793170329737 63.47293020969053 H 0.0 **** 0.06
30389 H 21.635795416080054 93.11776634628787 64.57560848254394 H 0.0 **** 0.06
30390 H 20.49545067730052 94.42818732931876 64.96401252661896 H 0.0 **** 0.06
30391 C 26.403239105484488 39.13332610495502 38.615283276908485 C 0.0 **** -0.24
30392 H 26.18680937203351 39.37538682486439 37.57425844796725 H 0.0 **** 0.06
30393 H 26.10222272422328 39.96518341893136 39.25152409288552 H 0.0 **** 0.06
30394 H 27.472893757549286 38.9545488491641 38.73120805302068 H 0.0 **** 0.06
30395 H 25.852663934721477 38.23680855212967 38.902036082929726 H 0.0 **** 0.06
30396 C 25.568156336215825 96.50602160860487 91.91993365776639 C 0.0 **** -0.24
30397 H 26.1273665813825 96.11619742073464 91.06952795693442 H 0.0 **** 0.06
30398 H 24.851508385482425 97.25067632980449 91.57294670746913 H 0.0 **** 0.06
30399 H 26.258138193121987 96.9676430491674 92.62631213134546 H 0.0 **** 0.06
30400 H 25.037168850954007 95.69028381249808 92.41068920536186 H 0.0 **** 0.06
30401 C 67.83145282309462 24.30846454916108 99.07426805730795 C 0.0 **** -0.24
30402 H 67.40466760444625 23.945741575807183 98.14011646447761 H 0.0 **** 0.06
30403 H 68.48856620926291 23.545935918026206 99.49376418763369 H 0.0 **** 0.06
30404 H 67.0286950459063 24.52552768650294 99.78022945770246 H 0.0 **** 0.06
30405 H 68.4020837630306 25.216858542678757 98.88427467183067 H 0.0 **** 0.06
30406 C 2.341518136610235 102.38990874743867 40.06801371406348 C 0.0 **** -0.24
30407 H 2.9497507464902375 103.08368183984044 39.487548506589064 H 0.0 **** 0.06
30408 H 2.660123124840962 102.41337615009877 41.11049922578658 H 0.0 **** 0.06
30409 H 2.463170051480259 101.38190887751819 39.67223990578336 H 0.0 **** 0.06
30410 H 1.2928287342723932 102.6828795242191 40.00203178097274 H 0.0 **** 0.06
30411 C 52.95974438317347 50.16564073514564 72.96909619736563 C 0.0 **** -0.24
30412 H 52.72287811265676 51.16545819076587 72.6071525258573 H 0.0 **** 0.06
30413 H 53.520562715476785 50.24096527865893 73.90146894705252 H 0.0 **** 0.06
30414 H 53.56050295949484 49.643278359213014 72.22433142803914 H 0.0 **** 0.06
30415 H 52.03623039162824 49.61357013364035 73.14317610670759 H 0.0 **** 0.06
30416 C 93.57498045987474 9.492349184063507 11.428277246151595 C 0.0 **** -0.24
30417 H 93.95583485487292 9.575031251046447 12.445539454184484 H 0.0 **** 0.06
30418 H 93.24707444302271 8.468723180883812 11.245738646598795 H 0.0 **** 0.06
30419 H 94.36514947291836 9.752146321991038 10.722751685411197 H 0.0 **** 0.06
30420 H 92.7336681256841 10.172336580345418 11.298448481365028 H 0.0 **** 0.06
30421 C 1.6417627978329392 52.978075309773416 38.05512396204114 C 0.0 **** -0.24
30422 H 1.786587997301524 53.82680860750687 37.38571573082919 H 0.0 **** 0.06
30423 H 0.7063200436858779 52.476268670978904 37.808797377139115 H 0.0 **** 0.06
30424 H 1.6060819828682042 53.330599408451 39.08552071139286 H 0.0 **** 0.06
30425 H 2.4707440626937114 52.278978238649024 37.93882572975343 H 0.0 **** 0.06
30426 C 73.5996438367994 42.528642053239025 57.58706440188885 C 0.0 **** -0.24
30427 H 72.93869325499936 42.56517880537098 58.4530056554612 H 0.0 **** 0.06
30428 H 73.97562839452515 43.529899049839514 57.376173636453274 H 0.0 **** 0.06
30429 H 73.04719240114552 42.15826050194613 56.723704242480125 H 0.0 **** 0.06
30430 H 74.43598744045764 41.86188178099326 57.796023631299505 H 0.0 **** 0.06
30431 C 75.84997514925227 45.42835772149667 9.744211236610909 C 0.0 **** -0.24
30432 H 75.91891835266257 44.52517092166377 10.35086461681891 H 0.0 **** 0.06
30433 H 75.15640760132081 46.12737468833005 10.210691845388112 H 0.0 **** 0.06
30434 H 75.49091091907493 45.169619002661875 8.748092258540566 H 0.0 **** 0.06
30435 H 76.83496898106695 45.889476556004446 9.666150513962293 H 0.0 **** 0.06
30436 C 45.3107307550075 79.4694877468675 10.870124506342947 C 0.0 **** -0.24
30437 H 46.05053055601818 80.05059299329294 10.319108322122943 H 0.0 **** 0.06
30438 H 45.7924668970929 78.97967123120358 11.71696155340561 H 0.0 **** 0.06
30439 H 44.876499760795255 78.71700331386424 10.212942328785871 H 0.0 **** 0.06
30440 H 44.52518009508884 80.13260315456711 11.233544399739685 H 0.0 **** 0.06
30441 C 99.6667375863733 48.99355378936525 70.36344631344117 C 0.0 **** -0.24
30442 H 98.79088783074474 48.42533882810176 70.67575513132286 H 0.0 **** 0.06
30443 H 100.48018654874954 48.30647034288398 70.12946766561957 H 0.0 **** 0.06
30444 H 99.97451318662479 49.65935832779911 71.17056305036664 H 0.0 **** 0.06
30445 H 99.42165175346918 49.58254850037929 69.48038008540202 H 0.0 **** 0.06
30446 C 53.37463855058718 70.6997383404593 89.12452178679 C 0.0 **** -0.24
30447 H 53.09795894616076 71.30106012694029 89.99083373716051 H 0.0 **** 0.06
30448 H 52.7869442733097 71.01409512026686 88.2618311519211 H 0.0 **** 0.06
30449 H 53.176692612056 69.64821047854412 89.33578109377954 H 0.0 **** 0.06
30450 H 54.43420938650314 70.83454746248731 88.91195672421965 H 0.0 **** 0.06
30451 C 65.60201336915088 19.476050106525076 20.729218394821494 C 0.0 **** -0.24
30452 H 65.89280728778604 19.98809540233991 19.811935244375125 H 0.0 **** 0.06
30453 H 64.65502632192276 19.882053879258702 21.08682208841672 H 0.0 **** 0.06
30454 H 66.37135797968739 19.622920210482096 21.486735302928977 H 0.0 **** 0.06
30455 H 65.48771230893614 18.410068220975383 20.52882173339315 H 0.0 **** 0.06
30456 C 79.92298491649666 32.3568998327853 1.341869911060698 C 0.0 **** -0.24
30457 H 80.81632057160218 32.8872685868792 1.0129242807501413 H 0.0 **** 0.06
30458 H 79.79676706537458 31.453854597039822 0.744302141079217 H 0.0 **** 0.06
30459 H 79.0516446899585 33.00019782323048 1.217504362134946 H 0.0 **** 0.06
30460 H 80.02772705149738 32.085535048364505 2.3916637153992752 H 0.0 **** 0.06
30461 C 3.345731850734989 92.49856888859787 53.26807542662658 C 0.0 **** -0.24
30462 H 2.4942096502677193 92.46728465991072 53.947491412080126 H 0.0 **** 0.06
30463 H 3.0620713634338426 92.062080713744 52.31102704423455 H 0.0 **** 0.06
30464 H 4.172668575057328 91.9313272759054 53.69635747765528 H 0.0 **** 0.06
30465 H 3.6537134227333503 93.53388750228731 53.11911025055389 H 0.0 **** 0.06
30466 C 102.69334612580974 48.06920944660885 84.08285156749383 C 0.0 **** -0.24
30467 H 101.90401010595474 47.973999202520105 84.82812768631072 H 0.0 **** 0.06
30468 H 102.30278714919095 47.79303506244398 83.10298050407454 H 0.0 **** 0.06
30469 H 103.52057665299893 47.40979383746148 84.34358998841145 H 0.0 **** 0.06
30470 H 103.04487502454182 49.10079705883467 84.0564070604517 H 0.0 **** 0.06
30471 C 72.01294677316207 16.319153991373696 96.60725353911033 C 0.0 **** -0.24
30472 H 71.28722678913194 16.69171089488131 97.33107588291833 H 0.0 **** 0.06
30473 H 72.89310047371161 15.950150476186423 97.13364286600756 H 0.0 **** 0.06
30474 H 72.30284015397166 17.12729870086605 95.93552231881739 H 0.0 **** 0.06
30475 H 71.56750315011877 15.50923073193377 96.0300394284468 H 0.0 **** 0.06
30476 C 15.648496193525446 87.39286036619922 63.700408090206395 C 0.0 **** -0.24
30477 H 16.588362757411033 87.59625959122707 63.18624030674346 H 0.0 **** 0.06
30478 H 15.3054686042382 88.29851759187312 64.200696936116 H 0.0 **** 0.06
30479 H 15.801636304346772 86.60498764515572 64.4369869915538 H 0.0 **** 0.06
30480 H 14.90118214674375 87.07244653231598 62.974345720884344 H 0.0 **** 0.06
30481 C 29.582470388554782 63.89200455614257 48.300382081631504 C 0.0 **** -0.24
30482 H 28.812900835561692 64.57610614510172 48.65814120231827 H 0.0 **** 0.06
30483 H 29.4400561212002 63.71164988048481 47.23488490644692 H 0.0 **** 0.06
30484 H 29.510551766573315 62.94914590005415 48.84220226492409 H 0.0 **** 0.06
30485 H 30.565620085117587 64.33311369195883 48.46696631807406 H 0.0 **** 0.06
30486 C 98.9864340969512 75.89394353975456 35.25286353281646 C 0.0 **** -0.24
30487 H 99.64548132731409 75.10018396697984 35.60312529420602 H 0.0 **** 0.06
30488 H 99.48450218119831 76.45789208213154 34.46420068460043 H 0.0 **** 0.06
30489 H 98.7476506209066 76.56065557302486 36.08180647877418 H 0.0 **** 0.06
30490 H 98.06724263186447 75.45659806197034 34.862069614479566 H 0.0 **** 0.06
30491 C 21.322805985905916 37.19486394810097 67.30628507128313 C 0.0 **** -0.24
30492 H 21.79632052284876 38.17690742479172 67.31021994073579 H 0.0 **** 0.06
30493 H 20.482549440904222 37.194492594489134 68.001804838843 H 0.0 **** 0.06
30494 H 22.04822950989245 36.44069229896135 67.61205086048551 H 0.0 **** 0.06
30495 H 20.963949346484924 36.96880052615472 66.30201562454722 H 0.0 **** 0.06
30496 C 67.35308703819487 63.782370870364275 46.44603015469755 C 0.0 **** -0.24
30497 H 66.81050424081924 64.71285398705203 46.27762301902852 H 0.0 **** 0.06
30498 H 66.69783710465576 62.937426328852666 46.23495411025854 H 0.0 **** 0.06
30499 H 67.68245896074164 63.73776979800505 47.48385129383124 H 0.0 **** 0.06
30500 H 68.21982835085467 63.74400818667368 45.787048661337025 H 0.0 **** 0.06
30501 C 94.72763260468801 68.86536906042306 94.09782764709514 C 0.0 **** -0.24
30502 H 93.65135571254541 68.6940307799239 94.08368198330454 H 0.0 **** 0.06
30503 H 95.12644848077082 68.75204975162114 93.08947774630096 H 0.0 **** 0.06
30504 H 95.20171044094934 68.1410016064275 94.76039453235938 H 0.0 **** 0.06
30505 H 94.92988615440149 69.87456066932916 94.45692188596793 H 0.0 **** 0.06
30506 C 72.55264187337575 3.0651164276215894 39.40757391310959 C 0.0 **** -0.24
30507 H 71.57554968850538 2.583731247341703 39.355601946625185 H 0.0 **** 0.06
30508 H 72.56216551758975 3.9394445290132865 38.75734972372041 H 0.0 **** 0.06
30509 H 73.32047568364366 2.362062210661236 39.08343827552367 H 0.0 **** 0.06
30510 H 72.75100936836006 3.371837883458099 40.43470592259773 H 0.0 **** 0.06
30511 C 88.72763946533036 25.107508943101493 51.76765571144094 C 0.0 **** -0.24
30512 H 88.94034587343378 26.159076592587212 51.957772202765625 H 0.0 **** 0.06
30513 H 89.31433290879284 24.767306844226027 50.91463392191875 H 0.0 **** 0.06
30514 H 87.66636629770727 24.984680487368735 51.55135892248268 H 0.0 **** 0.06
30515 H 88.98969525922928 24.519928832811786 52.64708347952762 H 0.0 **** 0.06
30516 C 104.61014494990195 39.6395353817787 62.78729671987708 C 0.0 **** -0.24
30517 H 104.88219372584965 39.111263088194164 63.701188244870764 H 0.0 **** 0.06
30518 H 103.78465594799441 40.320429315025564 62.99286710528591 H 0.0 **** 0.06
30519 H 104.30767885111834 38.9186482760158 62.027817360881954 H 0.0 **** 0.06
30520 H 105.46837809306338 40.207052452476916 62.42747577803095 H 0.0 **** 0.06
30521 C 73.99762850704923 103.81587967734275 78.41309825417864 C 0.0 **** -0.24
30522 H 74.39946007904894 103.74485240730557 79.42363987055728 H 0.0 **** 0.06
30523 H 73.27234116035442 104.62934163873771 78.36707811206082 H 0.0 **** 0.06
30524 H 73.51003161959662 102.87882105311805 78.14877808061323 H 0.0 **** 0.06
30525 H 74.80959428371942 104.01333924109711 77.71325172842097 H 0.0 **** 0.06
30526 C 6.501442719009887 28.903432268056633 17.62005964886626 C 0.0 **** -0.24
30527 H 6.371826321928225 27.867598762926832 17.93202174836688 H 0.0 **** 0.06
30528 H 5.524060845531579 29.364716046136692 17.47371115774692 H 0.0 **** 0.06
30529 H 7.061045275914182 28.933345614048648 16.6846265502206 H 0.0 **** 0.06
30530 H 7.049565657731776 29.44841287743371 18.38804806055387 H 0.0 **** 0.06
30531 C 23.148678233922027 20.033997709016177 19.989697827866536 C 0.0 **** -0.24
30532 H 23.94726864562233 19.94731137730824 19.252661386120266 H 0.0 **** 0.06
30533 H 23.450291191711955 19.536881070451614 20.911664495077495 H 0.0 **** 0.06
30534 H 22.243890757042635 19.565475621281536 19.602586043391963 H 0.0 **** 0.06
30535 H 22.9543549279565 21.087192756159936 20.191656962918948 H 0.0 **** 0.06
30536 C 82.59715967129335 26.197358957216494 24.88668764588371 C 0.0 **** -0.24
30537 H 82.46954840151172 26.45245424144018 25.9392263279733 H 0.0 **** 0.06
30538 H 81.6190198424982 26.069215008532126 24.422099104728005 H 0.0 **** 0.06
30539 H 83.1630856146815 25.2698036557626 24.804902476692718 H 0.0 **** 0.06
30540 H 83.13769253859452 26.99826020607557 24.382622915590673 H 0.0 **** 0.06
30541 C 75.09232728900156 108.67414877583548 105.42036723541216 C 0.0 **** -0.24
30542 H 74.52802514887435 107.82172333231628 105.79749159276224 H 0.0 **** 0.06
30543 H 76.12029177485721 108.61589801708038 105.77811536962042 H 0.0 **** 0.06
30544 H 74.63536125629315 109.59805585477176 105.77559060557901 H 0.0 **** 0.06
30545 H 75.08472685613685 108.66061665923075 104.33131632387534 H 0.0 **** 0.06
30546 C 30.822449292553515 38.58518168320391 23.024402821270996 C 0.0 **** -0.24
30547 H 30.63930727386564 39.515163225996815 23.563982533868796 H 0.0 **** 0.06
30548 H 31.525280339239387 37.97193035018941 23.587855709479868 H 0.0 **** 0.06
30549 H 31.239732793338646 38.8103854604762 22.043463704130602 H 0.0 **** 0.06
30550 H 29.88272249804392 38.044859956553736 22.90398721746118 H 0.0 **** 0.06
30551 C 73.79995403199752 107.52741549725212 75.80138688475239 C 0.0 **** -0.24
30552 H 73.06314472457763 106.76180374593282 76.04530813452254 H 0.0 **** 0.06
30553 H 73.98970471779697 107.51932355479757 74.72792236478813 H 0.0 **** 0.06
30554 H 74.72687846454437 107.32224153503468 76.33621261929454 H 0.0 **** 0.06
30555 H 73.41939233528024 108.50519151803077 76.09555465507498 H 0.0 **** 0.06
30556 C 47.64247377853939 9.575156548459375 5.926917680071185 C 0.0 **** -0.24
30557 H 48.31173424023376 9.425691961269067 6.774381338190665 H 0.0 **** 0.06
30558 H 46.617870339933795 9.365199136237592 6.232355884321052 H 0.0 **** 0.06
30559 H 47.92647624947799 8.903577952238862 5.1171018874785545 H 0.0 **** 0.06
30560 H 47.716014038406776 10.608108671698815 5.584425806154584 H 0.0 **** 0.06
30561 C 7.703820360600048 77.88645598693216 34.597757233227185 C 0.0 **** -0.24
30562 H 7.848363500349365 76.80977967823497 34.516527915758104 H 0.0 **** 0.06
30563 H 8.311184920340338 78.39194075809596 33.8467536936875 H 0.0 **** 0.06
30564 H 8.00406022276178 78.21960336089467 35.59162682005689 H 0.0 **** 0.06
30565 H 6.652850282527254 78.12479480715444 34.43684631947991 H 0.0 **** 0.06
30566 C 106.78312965199649 76.40641823028679 79.24480275032283 C 0.0 **** -0.24
30567 H 107.4718105073888 77.13280372527302 78.81457420468428 H 0.0 **** 0.06
30568 H 106.58349773026146 75.61954185599922 78.51706477764867 H 0.0 **** 0.06
30569 H 105.8496715185206 76.90263170956325 79.50913005988559 H 0.0 **** 0.06
30570 H 107.22802675204308 75.96972717180455 80.13934978096052 H 0.0 **** 0.06
30571 C 19.488595539526415 58.658874230881395 68.8126256640349 C 0.0 **** -0.24
30572 H 18.77563810288612 59.301177976222164 68.29639468990791 H 0.0 **** 0.06
30573 H 20.487389281964454 58.825462218359576 68.40873535228143 H 0.0 **** 0.06
30574 H 19.208029919966833 57.615518740913785 68.66753903246945 H 0.0 **** 0.06
30575 H 19.482619793413278 58.89227681401786 69.87721966016535 H 0.0 **** 0.06
30576 C 4.450950870589139 14.747217076383748 93.40285991564213 C 0.0 **** -0.24
30577 H 4.138049293832978 15.347062325567165 92.54755575844644 H 0.0 **** 0.06
30578 H 4.804843675077251 15.40438301189397 94.19750807852427 H 0.0 **** 0.06
30579 H 5.25437798125985 14.07523000953168 93.10100212298693 H 0.0 **** 0.06
30580 H 3.6047207500927527 14.163433799289109 93.76495179312087 H 0.0 **** 0.06
30581 C 57.425232992903716 26.20686783252353 94.88137610223828 C 0.0 **** -0.24
30582 H 57.633617230741606 26.76467987089768 95.79518006238396 H 0.0 **** 0.06
30583 H 57.30436987542606 25.150418822044287 95.121124849593 H 0.0 **** 0.06
30584 H 58.25509135466348 26.32934947686084 94.18518990486865 H 0.0 **** 0.06
30585 H 56.510081127381284 26.58449358043498 94.4257054943335 H 0.0 **** 0.06
30586 C 76.92161745425551 86.77902837912751 85.31164905306676 C 0.0 **** -0.24
30587 H 75.86640842919451 86.81169743306776 85.58414408712007 H 0.0 **** 0.06
30588 H 77.50627832327842 87.31827072083081 86.05717185215185 H 0.0 **** 0.06
30589 H 77.05896020324434 87.24373340533535 84.33610920690589 H 0.0 **** 0.06
30590 H 77.25431667155311 85.74139380791163 85.2700120434372 H 0.0 **** 0.06
30591 C 44.78954253727272 46.78536083903418 69.80956537102526 C 0.0 **** -0.24
30592 H 44.44334958011797 47.30199994031905 70.70402737447625 H 0.0 **** 0.06
30593 H 45.064612777321514 45.76168303813947 70.06573141238505 H 0.0 **** 0.06
30594 H 45.658642296055504 47.30433626259167 69.4035924029597 H 0.0 **** 0.06
30595 H 43.99387597711812 46.771890517133194 69.06546720434812 H 0.0 **** 0.06
30596 C 2.849526637075485 0.2137561076851 0.5133084172069289 C 0.0 **** -0.24
30597 H 2.0900988927631943 0.668086958807919 1.1494788583591173 H 0.0 **** 0.06
30598 H 2.4672581257396757 0.12813250092334272 -0.5039448720880841 H 0.0 **** 0.06
30599 H 3.09604620440831 -0.7770785745342721 0.8942330492502606 H 0.0 **** 0.06
30600 H 3.743856792748147 0.8366400603894135 0.5143099404068323 H 0.0 **** 0.06
30601 C 4.344627148481834 101.29163395769172 10.662487585478132 C 0.0 **** -0.24
30602 H 4.20428105965226 101.22203400363611 9.58385712083846 H 0.0 **** 0.06
30603 H 4.399434641185167 102.33996529381258 10.955495093167102 H 0.0 **** 0.06
30604 H 5.270188931729649 100.78690427936041 10.941369737126678 H 0.0 **** 0.06
30605 H 3.5052970649570057 100.81619753183486 11.169907602435885 H 0.0 **** 0.06
30606 C 74.50447174765065 10.553248012664085 57.02915381465286 C 0.0 **** -0.24
30607 H 75.31977474469025 10.045581729696778 56.51365615663667 H 0.0 **** 0.06
30608 H 74.13461797940757 11.368800463018204 56.408354157036285 H 0.0 **** 0.06
30609 H 74.86592097143875 10.950743674948939 57.977092355635676 H 0.0 **** 0.06
30610 H 73.69694897898934 9.844659895485279 57.21693770247052 H 0.0 **** 0.06
30611 C 75.03494256679187 82.64815773687361 29.332409485296125 C 0.0 **** -0.24
30612 H 74.73893702682875 81.83419811499853 28.6715469750348 H 0.0 **** 0.06
30613 H 76.041704006018 82.97734973586061 29.074898509171362 H 0.0 **** 0.06
30614 H 75.01947152927994 82.30096285037764 30.365636097870407 H 0.0 **** 0.06
30615 H 74.33976409460058 83.47984711112363 29.218512459524646 H 0.0 **** 0.06
30616 C 77.28038122873791 46.999547738351204 16.545516508635032 C 0.0 **** -0.24
30617 H 77.65806810287008 46.11690745575445 16.02921366313751 H 0.0 **** 0.06
30618 H 77.85377723640578 47.16007271998016 17.4577426554294 H 0.0 **** 0.06
30619 H 76.2297609517717 46.85188763842643 16.79607270161162 H 0.0 **** 0.06
30620 H 77.37909502467387 47.86893650049493 15.895407566961111 H 0.0 **** 0.06
30621 C 88.91832520109239 87.99753365250675 97.81619823987904 C 0.0 **** -0.24
30622 H 89.63278583033929 88.65694387436915 97.32542646572968 H 0.0 **** 0.06
30623 H 87.90680380714997 88.26129612053082 97.5066635633869 H 0.0 **** 0.06
30624 H 89.00769085362828 88.10624197295127 98.89759742625802 H 0.0 **** 0.06
30625 H 89.12601868695077 86.96432702648363 97.53779682097694 H 0.0 **** 0.06
30626 C 21.9074778229637 86.46362450229041 22.550938227342755 C 0.0 **** -0.24
30627 H 22.471911774437757 86.3957317935685 21.620907173908364 H 0.0 **** 0.06
30628 H 21.338087701294654 87.39367263146778 22.563677624483745 H 0.0 **** 0.06
30629 H 22.59655322720934 86.44726745921677 23.395711823679704 H 0.0 **** 0.06
30630 H 21.223718610702235 85.61782383195707 22.62252331966829 H 0.0 **** 0.06
30631 C 63.57715859116034 63.66610342592776 34.41043219578111 C 0.0 **** -0.24
30632 H 64.38256335535532 62.98942838110969 34.698761854343644 H 0.0 **** 0.06
30633 H 62.617103993012776 63.21372885417054 34.66063675352859 H 0.0 **** 0.06
30634 H 63.62357594293533 63.8501774577137 33.33759390882159 H 0.0 **** 0.06
30635 H 63.68601096718322 64.60906496708219 34.9466229980564 H 0.0 **** 0.06
30636 C 67.77861027007731 85.48714700735911 68.04499900602121 C 0.0 **** -0.24
30637 H 67.84915320421311 85.33554928751835 66.9678891276094 H 0.0 **** 0.06
30638 H 68.77162957772458 85.40531234818746 68.4880234452061 H 0.0 **** 0.06
30639 H 67.12486519812316 84.72804775419195 68.47542043489577 H 0.0 **** 0.06
30640 H 67.36901533167077 86.47629576321242 68.24707952194342 H 0.0 **** 0.06
30641 C 86.7302152283184 44.09933642785239 78.35178821564281 C 0.0 **** -0.24
30642 H 86.22358897186254 44.806028484350634 79.01030557871167 H 0.0 **** 0.06
30643 H 85.99681257242923 43.615312174358394 77.70730633022691 H 0.0 **** 0.06
30644 H 87.24095781362067 43.34673057659606 78.95108382268612 H 0.0 **** 0.06
30645 H 87.45758545172095 44.631924530933304 77.73960008798949 H 0.0 **** 0.06
30646 C 40.26124834526658 37.3489763886669 36.068836595549584 C 0.0 **** -0.24
30647 H 41.27480544776898 37.33968201827412 36.46957275763572 H 0.0 **** 0.06
30648 H 39.77614294367754 38.29033467619246 36.328245964211874 H 0.0 **** 0.06
30649 H 39.69586800598688 36.51951396969196 36.492590046933174 H 0.0 **** 0.06
30650 H 40.299133714332044 37.24611425762822 34.983929230571675 H 0.0 **** 0.06
30651 C 70.95204677695773 72.84056339336291 20.657976786672975 C 0.0 **** -0.24
30652 H 71.14989162243815 73.66308244707403 21.345095169726903 H 0.0 **** 0.06
30653 H 70.84458497561363 73.229616047278 19.645347600726325 H 0.0 **** 0.06
30654 H 70.033156748175 72.33458401140217 20.952740762789688 H 0.0 **** 0.06
30655 H 71.78245050704216 72.13397928397848 20.69057269921487 H 0.0 **** 0.06
30656 C 77.78551834296879 30.398215562090797 22.30147251921406 C 0.0 **** -0.24
30657 H 78.82115929706126 30.073465101838877 22.200890127322623 H 0.0 **** 0.06
30658 H 77.16581495648434 29.863922426242937 21.580862739473673 H 0.0 **** 0.06
30659 H 77.72158640491762 31.46998326184854 22.11187663589311 H 0.0 **** 0.06
30660 H 77.43461299582577 30.185768803046017 23.31095190797035 H 0.0 **** 0.06
30661 C 105.63096783659148 71.85340448908366 70.76421789082836 C 0.0 **** -0.24
30662 H 104.8051769069009 71.83424233805623 71.4753043889294 H 0.0 **** 0.06
30663 H 106.33694454008236 72.63457248885558 71.04995451969575 H 0.0 **** 0.06
30664 H 105.24670796569717 72.05755561510156 69.76570927994445 H 0.0 **** 0.06
30665 H 106.13698574309177 70.88771975322268 70.7685489636054 H 0.0 **** 0.06
30666 C 20.660143022680984 77.53959793119486 82.18141905277285 C 0.0 **** -0.24
30667 H 20.189967385294892 78.40936780930582 81.72263796160304 H 0.0 **** 0.06
30668 H 21.056676624755198 77.81440148816546 83.15915777138204 H 0.0 **** 0.06
30669 H 21.471727012589554 77.18724473657102 81.54527560430002 H 0.0 **** 0.06
30670 H 19.920285966903805 76.7476948292607 82.29971485504878 H 0.0 **** 0.06
30671 C 70.94807503812262 4.071546005557195 84.06894639765085 C 0.0 **** -0.24
30672 H 70.08773056494562 3.68024796236449 84.61149415639278 H 0.0 **** 0.06
30673 H 71.8086568454558 3.423097310667856 84.23721454866188 H 0.0 **** 0.06
30674 H 71.17544880145255 5.077074998799503 84.42466192893335 H 0.0 **** 0.06
30675 H 70.72056769531508 4.1055683776885985 83.00381179718082 H 0.0 **** 0.06
30676 C 93.04772434251736 31.845347088735082 25.322613066180196 C 0.0 **** -0.24
30677 H 93.47386037652295 32.810193100761836 25.045554994085833 H 0.0 **** 0.06
30678 H 91.9597503705477 31.90981584389121 25.299715633922204 H 0.0 **** 0.06
30679 H 93.3745845589029 31.58002763285733 26.327240245585187 H 0.0 **** 0.06
30680 H 93.38195238387914 31.0842203705199 24.617483571103037 H 0.0 **** 0.06
30681 C 19.60652286207835 42.678790963087636 97.98594885153966 C 0.0 **** -0.24
30682 H 18.802424983566823 42.15648947527677 97.46713323621594 H 0.0 **** 0.06
30683 H 19.325504681191205 42.83369978250471 99.02827604008564 H 0.0 **** 0.06
30684 H 19.779843246512883 43.643818031484614 97.508380292413 H 0.0 **** 0.06
30685 H 20.517051522971485 42.08105835361778 97.939385249547 H 0.0 **** 0.06
30686 C 73.37393040169519 24.013655245059816 95.40020463515829 C 0.0 **** -0.24
30687 H 73.81299571028302 24.90554692938163 94.9531948592051 H 0.0 **** 0.06
30688 H 72.33918557411783 23.913066882233156 95.06966857990419 H 0.0 **** 0.06
30689 H 73.40130150569931 24.101130180648514 96.48646603769434 H 0.0 **** 0.06
30690 H 73.94125991857209 23.1362811320959 95.09175417969449 H 0.0 **** 0.06
30691 C 42.204430773239636 92.61546789879004 4.199419828240764 C 0.0 **** -0.24
30692 H 43.07993378140702 92.11112852001841 3.789555003915382 H 0.0 **** 0.06
30693 H 41.98205455139434 93.4990789730096 3.600894836185091 H 0.0 **** 0.06
30694 H 42.406895876789505 92.91459494887793 5.227677936545433 H 0.0 **** 0.06
30695 H 41.3520404363133 91.93697780059404 4.178689992100374 H 0.0 **** 0.06
30696 C 38.15017946334024 57.43633090000981 100.9249682679142 C 0.0 **** -0.24
30697 H 38.32610508630751 57.213859536908274 101.9779718711649 H 0.0 **** 0.06
30698 H 38.72581083065268 56.74770466268447 100.3067884576533 H 0.0 **** 0.06
30699 H 38.45821093230552 58.45969861731564 100.71382157597176 H 0.0 **** 0.06
30700 H 37.088435087737025 57.32385899138583 100.70380350636647 H 0.0 **** 0.06
30701 C 61.8634440390429 24.40615676773308 10.943564319741654 C 0.0 **** -0.24
30702 H 60.99239432404514 24.58147299829541 11.575845533393021 H 0.0 **** 0.06
30703 H 62.53947340779072 23.71285461906659 11.442656716894533 H 0.0 **** 0.06
30704 H 62.376744267007254 25.351065754698055 10.764606899638466 H 0.0 **** 0.06
30705 H 61.54162982198807 23.981191490718984 9.992784119923954 H 0.0 **** 0.06
30706 C 30.63684481355945 25.823099288589518 69.36959138378938 C 0.0 **** -0.24
30707 H 30.24716249684085 26.247858392636687 68.44485778737783 H 0.0 **** 0.06
30708 H 30.215521265108634 26.35971776862587 70.22030284560492 H 0.0 **** 0.06
30709 H 31.723129079458566 25.91677439321188 69.38279647348236 H 0.0 **** 0.06
30710 H 30.361770354703303 24.770480199321014 69.43059895105307 H 0.0 **** 0.06
30711 C 2.3563097692354518 76.12762040083715 105.76631184821801 C 0.0 **** -0.24
30712 H 2.023687778316912 75.19538286496206 105.30952232995524 H 0.0 **** 0.06
30713 H 3.269576951838019 75.9463619509853 106.33539832941153 H 0.0 **** 0.06
30714 H 1.5809269869483273 76.50259951724439 106.43385213433676 H 0.0 **** 0.06
30715 H 2.5535087428462475 76.86363816011166 104.98777718748487 H 0.0 **** 0.06
30716 C 85.86558297390857 63.078905331306885 39.527571581346024 C 0.0 **** -0.24
30717 H 85.63193553642188 62.01772903945469 39.606454765591764 H 0.0 **** 0.06
30718 H 85.08288954477135 63.58131540292675 38.958626056679776 H 0.0 **** 0.06
30719 H 86.8222117410698 63.20363818629498 39.02033793288689 H 0.0 **** 0.06
30720 H 85.925005945695 63.51265826882407 40.52655218119429 H 0.0 **** 0.06
30721 C 108.6534567570219 64.58837188025572 66.22898843450002 C 0.0 **** -0.24
30722 H 108.58869421079754 64.45090293313177 65.14892175114792 H 0.0 **** 0.06
30723 H 107.9419254546658 63.92613979608677 66.7219343970458 H 0.0 **** 0.06
30724 H 108.41897606410254 65.6238107302272 66.47694020469675 H 0.0 **** 0.06
30725 H 109.66361121757308 64.35325567901259 66.56495900483321 H 0.0 **** 0.06
30726 C 25.398647192764713 40.076083646958864 27.211428591362335 C 0.0 **** -0.24
30727 H 25.1359774015539 40.982333690508966 26.666572412512835 H 0.0 **** 0.06
30728 H 26.2426764821262 39.58841789520349 26.721399360547878 H 0.0 **** 0.06
30729 H 24.5450060459047 39.3987821334876 27.22376918766463 H 0.0 **** 0.06
30730 H 25.67198187922824 40.33353359957354 28.234507529476986 H 0.0 **** 0.06
30731 C 15.933217883248346 81.53632566910248 16.277166582243364 C 0.0 **** -0.24
30732 H 17.004383254173504 81.53834832982957 16.07049384598612 H 0.0 **** 0.06
30733 H 15.584279266949835 80.50816002677846 16.37446061873955 H 0.0 **** 0.06
30734 H 15.404783971516736 82.0250936086917 15.458171829845988 H 0.0 **** 0.06
30735 H 15.742476996540518 82.07452707426967 17.205596450945627 H 0.0 **** 0.06
30736 C 57.51028477003382 41.308446570972706 49.52799914021318 C 0.0 **** -0.24
30737 H 58.41167695518161 40.86497963489202 49.106102207087815 H 0.0 **** 0.06
30738 H 57.75923761909413 41.82996233929819 50.452968716002886 H 0.0 **** 0.06
30739 H 56.78322199536215 40.524046741387906 49.73684229535007 H 0.0 **** 0.06
30740 H 57.08650574690873 42.01602517547474 48.81428155043574 H 0.0 **** 0.06
30741 C 82.94149501092356 27.8618536533599 92.18736200149834 C 0.0 **** -0.24
30742 H 83.99216436971965 28.00010952064369 91.93023532429476 H 0.0 **** 0.06
30743 H 82.85107588700522 27.68193330516027 93.25910589214732 H 0.0 **** 0.06
30744 H 82.54364660617757 27.00680464181042 91.64044453217286 H 0.0 **** 0.06
30745 H 82.38112414806756 28.757648223587694 91.91948618473191 H 0.0 **** 0.06
30746 C 105.19046128316167 103.91887890321121 86.88502640175446 C 0.0 **** -0.24
30747 H 105.78121940312471 103.92385430541009 85.96797239745253 H 0.0 **** 0.06
30748 H 105.30414599415363 102.95635877224102 87.38376345427888 H 0.0 **** 0.06
30749 H 104.14050520258901 104.0804166963163 86.64094724998523 H 0.0 **** 0.06
30750 H 105.5377584928959 104.71408834222851 87.54423155261429 H 0.0 **** 0.06
30751 C 15.079342601847486 97.23155570732 22.337938176522798 C 0.0 **** -0.24
30752 H 14.333484123807281 96.48047690380301 22.078140917346587 H 0.0 **** 0.06
30753 H 14.634106174676774 97.97011706489027 23.00559420791288 H 0.0 **** 0.06
30754 H 15.428778044753969 97.72539380837452 21.431296208328177 H 0.0 **** 0.06
30755 H 15.920844587506593 96.75119318543497 22.836482141693878 H 0.0 **** 0.06
30756 C 14.954601468682199 74.56534354848563 14.792489702263225 C 0.0 **** -0.24
30757 H 14.365052435408927 75.37709386746192 15.21988796328111 H 0.0 **** 0.06
30758 H 15.246386645633379 73.87350574373166 15.58151862357822 H 0.0 **** 0.06
30759 H 15.847255408188175 74.97622012940046 14.320341138487478 H 0.0 **** 0.06
30760 H 14.359269733326357 74.03822030360058 14.047605130789279 H 0.0 **** 0.06
30761 C 9.29911623800416 27.871733639034176 27.6273426064272 C 0.0 **** -0.24
30762 H 8.886482492722308 28.82790542284829 27.945989236039964 H 0.0 **** 0.06
30763 H 8.485944777723219 27.197861655983786 27.35469508943261 H 0.0 **** 0.06
30764 H 9.87431599893604 27.434503023119134 28.44376682839424 H 0.0 **** 0.06
30765 H 9.948992816078942 28.02396148054919 26.765997758273294 H 0.0 **** 0.06
30766 C 101.16816115876506 72.49791723823779 91.29909930424213 C 0.0 **** -0.24
30767 H 101.60331816245487 72.9920550035117 92.16757791587366 H 0.0 **** 0.06
30768 H 100.10808946632594 72.31708571714705 91.47750289161615 H 0.0 **** 0.06
30769 H 101.67622596261184 71.54808540272217 91.12965152979558 H 0.0 **** 0.06
30770 H 101.28661265623268 73.13498091035228 90.42204626518739 H 0.0 **** 0.06
30771 C 47.67718035698181 2.27814936790263 95.30944680439738 C 0.0 **** -0.24
30772 H 46.83858787258512 2.1625605032550075 95.99702355292186 H 0.0 **** 0.06
30773 H 47.34149925395752 2.799101701989989 94.41317023410463 H 0.0 **** 0.06
30774 H 48.061106472821166 1.2950383946082162 95.0362922038977 H 0.0 **** 0.06
30775 H 48.46564339182535 2.8551826432091305 95.7922702589113 H 0.0 **** 0.06
30776 C 10.232582600348593 57.176376847564484 103.15952975260291 C 0.0 **** -0.24
30777 H 10.203825062970367 58.24938740323461 102.97334663740406 H 0.0 **** 0.06
30778 H 10.868488763724088 56.69587119036362 102.41390271268035 H 0.0 **** 0.06
30779 H 9.224009469151298 56.76845865325231 103.093568836628 H 0.0 **** 0.06
30780 H 10.634869795475765 56.9902011722196 104.15490679308704 H 0.0 **** 0.06
30781 C 66.25321269477735 7.051222782644345 19.882004556352 C 0.0 **** -0.24
30782 H 67.22097246416854 6.555614351560848 19.798570588974798 H 0.0 **** 0.06
30783 H 66.07269349312634 7.321951733775023 20.922202376864874 H 0.0 **** 0.06
30784 H 65.46947137038393 6.376042046237615 19.54044737596695 H 0.0 **** 0.06
30785 H 66.2518669626354 7.950702645124238 19.266637177048523 H 0.0 **** 0.06
30786 C 16.048405964392497 62.93074970977301 12.020084558855999 C 0.0 **** -0.24
30787 H 16.629583691086356 62.12506625705288 11.572576524864829 H 0.0 **** 0.06
30788 H 16.722403624110306 63.64349599512835 12.495412610211176 H 0.0 **** 0.06
30789 H 15.370249275005492 62.518780083566924 12.766563180648362 H 0.0 **** 0.06
30790 H 15.472017432330023 63.43641830872605 11.244774661189979 H 0.0 **** 0.06
30791 C 48.14593220447686 29.537002835845442 77.7255706805507 C 0.0 **** -0.24
30792 H 48.63640010134422 30.41204753777302 78.1521792631541 H 0.0 **** 0.06
30793 H 48.876231487966336 28.948925912089692 77.16844105105037 H 0.0 **** 0.06
30794 H 47.34976572213218 29.857585606454563 77.05536670398027 H 0.0 **** 0.06
30795 H 47.725063195882576 28.92965180193795 78.52648380386938 H 0.0 **** 0.06
30796 C 84.3631545935529 28.5175463813963 2.8795527367595604 C 0.0 **** -0.24
30797 H 83.81534828255587 28.76852876438619 1.9709031985013468 H 0.0 **** 0.06
30798 H 83.68032049632086 28.070972391075315 3.602375075338461 H 0.0 **** 0.06
30799 H 84.80027453854603 29.4221956677016 3.301907650536913 H 0.0 **** 0.06
30800 H 85.15553747951799 27.80777524932438 2.6405355851744226 H 0.0 **** 0.06
30801 C 86.86074607190791 52.40930392220944 22.737434577607985 C 0.0 **** -0.24
30802 H 86.47611469475724 53.088834347110605 21.976799989340435 H 0.0 **** 0.06
30803 H 86.6076954773552 52.79078576198704 23.726910141595823 H 0.0 **** 0.06
30804 H 87.94437865604945 52.33346955243033 22.642337356751256 H 0.0 **** 0.06
30805 H 86.41464146047338 51.4242838711908 22.602293872956324 H 0.0 **** 0.06
30806 C 44.77407020238431 91.58984875074691 97.15122003392533 C 0.0 **** -0.24
30807 H 45.14724346599121 90.6366359814507 96.77838906104968 H 0.0 **** 0.06
30808 H 45.60996856477101 92.18935420586985 97.51377633792045 H 0.0 **** 0.06
30809 H 44.074960325658964 91.4113487448875 97.96798681385341 H 0.0 **** 0.06
30810 H 44.266940503128495 92.12186702388266 96.34695152313478 H 0.0 **** 0.06
30811 C 69.83817010329858 10.618248322980037 71.78232314928027 C 0.0 **** -0.24
30812 H 70.84738966609018 10.309458844721973 72.05582419870143 H 0.0 **** 0.06
30813 H 69.60753695980034 11.568101953316528 72.26556360560485 H 0.0 **** 0.06
30814 H 69.12613454372217 9.861559040106812 72.10929787967459 H 0.0 **** 0.06
30815 H 69.77490729512238 10.735250704493268 70.70111546629032 H 0.0 **** 0.06
30816 C 75.29486441056561 20.80458187311902 57.183453892420836 C 0.0 **** -0.24
30817 H 75.98181862069997 21.04320018592766 56.370373226935826 H 0.0 **** 0.06
30818 H 74.92051261873515 21.728031145529485 57.62499554209727 H 0.0 **** 0.06
30819 H 75.82029440184591 20.224791927670736 57.94295099882196 H 0.0 **** 0.06
30820 H 74.46032287711184 20.221710649401658 56.79481603271713 H 0.0 **** 0.06
30821 C 56.19875269575084 88.59711825016552 49.55350121087158 C 0.0 **** -0.24
30822 H 56.141734006239346 89.60193926609759 49.134548379474175 H 0.0 **** 0.06
30823 H 55.756575365602885 88.59329458872608 50.550453325246195 H 0.0 **** 0.06
30824 H 57.2422948957078 88.28899389025722 49.617967619194054 H 0.0 **** 0.06
30825 H 55.654782467765756 87.90472383710141 48.911829036511435 H 0.0 **** 0.06
30826 C 75.26397856470709 28.218016894386494 11.22460657319374 C 0.0 **** -0.24
30827 H 75.83680131509624 27.783416838364076 12.04373094995367 H 0.0 **** 0.06
30828 H 74.23955059169452 27.845198535531523 11.260589123351963 H 0.0 **** 0.06
30829 H 75.71940262899602 27.938364434873705 10.274366440284837 H 0.0 **** 0.06
30830 H 75.25992487048677 29.30407988089189 11.32070368031114 H 0.0 **** 0.06
30831 C 98.7883673015324 54.37576967247578 42.65133245791125 C 0.0 **** -0.24
30832 H 99.24752172008691 53.59436054560625 43.25774313718489 H 0.0 **** 0.06
30833 H 98.71078795356432 54.03649885473247 41.61849432480555 H 0.0 **** 0.06
30834 H 99.40289962764267 55.27515384318122 42.693439553537274 H 0.0 **** 0.06
30835 H 97.79351238507702 54.59790275494121 43.037584267618314 H 0.0 **** 0.06
30836 C 71.59809496796126 51.984747530793356 68.67273239088382 C 0.0 **** -0.24
30837 H 71.67249386615423 51.646789489291905 67.63861050164525 H 0.0 **** 0.06
30838 H 70.96673590763615 51.29515257083682 69.23457264982625 H 0.0 **** 0.06
30839 H 71.16030500571 52.98227346620229 68.69792729766891 H 0.0 **** 0.06
30840 H 72.59227222066252 52.012006593221145 69.1173674480961 H 0.0 **** 0.06
30841 C 15.282235006559599 58.452480280228315 20.216178168171158 C 0.0 **** -0.24
30842 H 14.581557438132872 58.09523430797667 20.97115839761526 H 0.0 **** 0.06
30843 H 16.218734845231086 57.90076154274438 20.30054268693858 H 0.0 **** 0.06
30844 H 15.471240857209374 59.51466680926387 20.370895391829446 H 0.0 **** 0.06
30845 H 14.857349317285088 58.29938606320438 19.224561743442933 H 0.0 **** 0.06
30846 C 56.51341508299505 37.884960056251714 74.47536192837606 C 0.0 **** -0.24
30847 H 56.94970712377346 37.144192771815995 75.14581548619213 H 0.0 **** 0.06
30848 H 56.83329711991503 37.68147950061817 73.45267914085105 H 0.0 **** 0.06
30849 H 56.84580376208598 38.87999262544599 74.76901606386838 H 0.0 **** 0.06
30850 H 55.42661003649148 37.832473244883715 74.53405393225091 H 0.0 **** 0.06
30851 C 11.147059763587833 17.813582892421095 107.0362329325689 C 0.0 **** -0.24
30852 H 10.903600957693882 16.753773719804087 107.11124086796292 H 0.0 **** 0.06
30853 H 12.189002379383325 17.926657510755717 106.73749130788386 H 0.0 **** 0.06
30854 H 10.992541740471765 18.29112280665578 108.00344782110253 H 0.0 **** 0.06
30855 H 10.501698448714976 18.28269238477111 106.29253877718261 H 0.0 **** 0.06
30856 C 81.17119876190054 4.386484305212429 62.165347939199606 C 0.0 **** -0.24
30857 H 80.30858279539808 4.370549698282824 62.83184900432866 H 0.0 **** 0.06
30858 H 81.81515952820251 5.226706657740426 62.42359928182036 H 0.0 **** 0.06
30859 H 80.83148377120989 4.49141343731295 61.13456013021262 H 0.0 **** 0.06
30860 H 81.72829713138287 3.4550463369351014 62.2701793373968 H 0.0 **** 0.06
30861 C 100.11973877905291 94.19244812129435 108.10485916723698 C 0.0 **** -0.24
30862 H 99.482018167717 94.93566172719314 108.5843910910164 H 0.0 **** 0.06
30863 H 101.15009783382408 94.54958177884497 108.09544161908427 H 0.0 **** 0.06
30864 H 99.78112126963822 94.02955361529665 107.08218992776608 H 0.0 **** 0.06
30865 H 100.06475599706323 93.25521689335177 108.65965592100686 H 0.0 **** 0.06
30866 C 47.343406716532854 70.06277000564182 81.23379860264586 C 0.0 **** -0.24
30867 H 47.18457828695256 69.18713169185126 80.60368592881919 H 0.0 **** 0.06
30868 H 48.001049120318044 70.76488398163808 80.7205624632747 H 0.0 **** 0.06
30869 H 47.80223111264985 69.75454998523502 82.17362810334406 H 0.0 **** 0.06
30870 H 46.386079482645926 70.54231085559167 81.43709884155398 H 0.0 **** 0.06
30871 C 82.58264770842516 51.546074872187134 16.649397829628356 C 0.0 **** -0.24
30872 H 81.56321233610015 51.23042255684701 16.872501008492605 H 0.0 **** 0.06
30873 H 83.28390717895604 50.8015604404677 17.02742206457674 H 0.0 **** 0.06
30874 H 82.77907693183397 52.505389591514685 17.127589909004598 H 0.0 **** 0.06
30875 H 82.70428606675557 51.64533103520104 15.57127903654893 H 0.0 **** 0.06
30876 C 29.318765751681212 77.5111810037576 56.24539126846497 C 0.0 **** -0.24
30877 H 29.964705546922545 78.13056220512127 55.62290545786061 H 0.0 **** 0.06
30878 H 28.377111590322777 78.03086293021336 56.419480179141715 H 0.0 **** 0.06
30879 H 29.810921359295655 77.3187916387933 57.198794676652426 H 0.0 **** 0.06
30880 H 29.124987056320776 76.5655559503018 55.73870797707161 H 0.0 **** 0.06
30881 C 73.23332059062278 69.68225377159854 39.30705180790147 C 0.0 **** -0.24
30882 H 73.8681422265496 68.79649125641134 39.32039733921829 H 0.0 **** 0.06
30883 H 73.85799260527085 70.57549613866246 39.26986472181713 H 0.0 **** 0.06
30884 H 72.62142174398468 69.70395157684436 40.208411798318366 H 0.0 **** 0.06
30885 H 72.58706180012973 69.6532688604303 38.429955291874876 H 0.0 **** 0.06
30886 C 20.64713606460795 105.17786546385582 30.800741226864886 C 0.0 **** -0.24
30887 H 19.768489185939586 105.38430131266864 30.191010399122803 H 0.0 **** 0.06
30888 H 20.33531665809653 104.91014482952517 31.810123793576764 H 0.0 **** 0.06
30889 H 21.27945836910537 106.06504540128171 30.839524485075344 H 0.0 **** 0.06
30890 H 21.207676334995696 104.35146240472355 30.36231732821409 H 0.0 **** 0.06
30891 C 81.0781937047471 69.34894223653143 64.56718168775049 C 0.0 **** -0.24
30892 H 81.71513528894067 69.07390051930277 63.72661085462617 H 0.0 **** 0.06
30893 H 81.68339024595565 69.81621444526571 65.34403604546502 H 0.0 **** 0.06
30894 H 80.59860110436097 68.45543453601515 64.96705641582047 H 0.0 **** 0.06
30895 H 80.31471492523718 70.05091973975334 64.22974328950974 H 0.0 **** 0.06
30896 C 66.29482656844546 102.17999438003193 27.659981864371247 C 0.0 **** -0.24
30897 H 66.79453820445075 101.30094166618952 28.067262457300558 H 0.0 **** 0.06
30898 H 66.7668547959224 102.46190088198126 26.718073690581605 H 0.0 **** 0.06
30899 H 66.37596746614113 103.00455472611998 28.368327302959642 H 0.0 **** 0.06
30900 H 65.24329944638822 101.9521707023858 27.486258142698915 H 0.0 **** 0.06
30901 C 55.35990494993493 108.49062626178389 99.49146291270083 C 0.0 **** -0.24
30902 H 54.47898178711799 108.4733114821911 98.85124392752488 H 0.0 **** 0.06
30903 H 56.1097334089865 107.80469681223815 99.09698864493629 H 0.0 **** 0.06
30904 H 55.08128667668075 108.18332532096946 100.50033601736924 H 0.0 **** 0.06
30905 H 55.76926252864547 109.50014903094075 99.51948048808966 H 0.0 **** 0.06
30906 C 104.77054352009614 103.32502320336965 29.79809905496535 C 0.0 **** -0.24
30907 H 104.54693633487172 103.73234382290343 28.811690091553146 H 0.0 **** 0.06
30908 H 105.72579936850605 103.71899803278913 30.144882785210882 H 0.0 **** 0.06
30909 H 104.82531617741839 102.23737821785869 29.73726910683439 H 0.0 **** 0.06
30910 H 103.98338625873099 103.60995256119043 30.495648719369342 H 0.0 **** 0.06
30911 C 90.9844463660327 107.98491526348639 19.353965279824877 C 0.0 **** -0.24
30912 H 90.16141690091956 108.20189723117565 20.035865019627636 H 0.0 **** 0.06
30913 H 91.54700016520592 108.89834109034176 19.162172891558058 H 0.0 **** 0.06
30914 H 90.58669015111346 107.59819842264088 18.41606181562574 H 0.0 **** 0.06
30915 H 91.64234477758092 107.24030523761951 19.80459768416685 H 0.0 **** 0.06
30916 C 38.193747720003316 10.442166861767532 104.96445341123179 C 0.0 **** -0.24
30917 H 37.93476769022419 9.518334084630567 104.44627752021002 H 0.0 **** 0.06
30918 H 37.8142522469574 10.402905074099635 105.9854399708036 H 0.0 **** 0.06
30919 H 37.74777205503273 11.288042384316384 104.44226942155696 H 0.0 **** 0.06
30920 H 39.2776391257216 10.556475317615934 104.98233821020669 H 0.0 **** 0.06
30921 C 36.565458925431415 65.6775099384509 79.39682815919781 C 0.0 **** -0.24
30922 H 36.57663827970376 65.7819672676714 80.48189016953438 H 0.0 **** 0.06
30923 H 37.587075969410705 65.56487469563058 79.03252082922961 H 0.0 **** 0.06
30924 H 36.116978656271016 66.5650532527111 78.9510118821247 H 0.0 **** 0.06
30925 H 35.98263136321145 64.79849694336946 79.12270223828165 H 0.0 **** 0.06
30926 C 87.74632062191736 38.3690741491761 87.65371269792288 C 0.0 **** -0.24
30927 H 86.65991918584362 38.31230948004388 87.5842176179747 H 0.0 **** 0.06
30928 H 88.02552219840553 39.20005722409776 88.30258059067097 H 0.0 **** 0.06
30929 H 88.16575539700256 38.52673395928889 86.65999557285409 H 0.0 **** 0.06
30930 H 88.13291157066125 37.43794529807772 88.0678121495995 H 0.0 **** 0.06
30931 C 91.67045512471992 48.446028787340374 49.1365214853775 C 0.0 **** -0.24
30932 H 92.57700599833723 48.31738758197639 48.54566466088295 H 0.0 **** 0.06
30933 H 90.82249424102864 48.021530573081485 48.597588699630705 H 0.0 **** 0.06
30934 H 91.4967517720192 49.50829168557049 49.30802815596354 H 0.0 **** 0.06
30935 H 91.78441103518901 47.93723564934611 50.093207121860075 H 0.0 **** 0.06
30936 C 71.97672809156877 79.28225885880755 7.736059720621398 C 0.0 **** -0.24
30937 H 71.07338512218041 78.72272443135694 7.978042252432857 H 0.0 **** 0.06
30938 H 72.09687659206313 80.10223038574091 8.444689340319798 H 0.0 **** 0.06
30939 H 71.89456127828721 79.68440808593638 6.725788208675155 H 0.0 **** 0.06
30940 H 72.8399356621823 78.6204554565796 7.794853718015489 H 0.0 **** 0.06
30941 C 99.79907387736648 87.99348577852282 53.92916109223804 C 0.0 **** -0.24
30942 H 98.92358699243252 87.97171606321132 53.280666198559196 H 0.0 **** 0.06
30943 H 99.48558939304273 88.17205217822678 54.95803251940829 H 0.0 **** 0.06
30944 H 100.46822266577227 88.7928746917786 53.60900458964525 H 0.0 **** 0.06
30945 H 100.32014780894359 87.0376405350944 53.86837681010097 H 0.0 **** 0.06
30946 C 71.6229620982038 18.285491255620485 75.77652339842336 C 0.0 **** -0.24
30947 H 71.9286503270232 18.969274731682546 76.56928111406205 H 0.0 **** 0.06
30948 H 70.62270090091658 18.551109327065944 75.43348189528263 H 0.0 **** 0.06
30949 H 71.61754139701685 17.26484136787026 76.15881160897288 H 0.0 **** 0.06
30950 H 72.32358470484365 18.35886997793952 74.94426176299498 H 0.0 **** 0.06
30951 C 105.33093463200652 41.54554650383494 86.46094203295202 C 0.0 **** -0.24
30952 H 105.33061218233448 42.3559581869703 87.18881124291478 H 0.0 **** 0.06
30953 H 105.1976875764372 40.59426717194833 86.97554448973597 H 0.0 **** 0.06
30954 H 106.28056715384484 41.5386511199936 85.92525609373294 H 0.0 **** 0.06
30955 H 104.51562730965885 41.693853668090014 85.75309190604993 H 0.0 **** 0.06
30956 C 26.59823210870553 94.40167606282081 19.237086100456224 C 0.0 **** -0.24
30957 H 25.975320513191093 94.24966118549928 18.355519600575008 H 0.0 **** 0.06
30958 H 27.012326224608444 95.41033326106147 19.21895775476338 H 0.0 **** 0.06
30959 H 27.41019915875239 93.67446701868212 19.23646953627548 H 0.0 **** 0.06
30960 H 25.994061257906992 94.27177128429845 20.135221511634143 H 0.0 **** 0.06
30961 C 92.98666502364938 25.77357869738944 49.97384059991964 C 0.0 **** -0.24
30962 H 92.55498601470254 24.813096266857542 50.25468144361156 H 0.0 **** 0.06
30963 H 93.36003642154314 25.7197207448599 48.95129819323165 H 0.0 **** 0.06
30964 H 93.80915564048334 26.01297054874695 50.64899885257341 H 0.0 **** 0.06
30965 H 92.22331073899291 26.548612637559756 50.04245904264917 H 0.0 **** 0.06
30966 C 61.328560845281174 66.5737212710695 54.38183804089459 C 0.0 **** -0.24
30967 H 60.86294945535093 65.5875505272391 54.385609283113126 H 0.0 **** 0.06
30968 H 61.06558421595352 67.10260832936893 55.298094910065515 H 0.0 **** 0.06
30969 H 60.97281783852958 67.13938418210958 53.521014470165426 H 0.0 **** 0.06
30970 H 62.41153884990263 66.46386972339843 54.32267591203902 H 0.0 **** 0.06
30971 C 50.94665613330634 15.873216205124066 13.900460204363583 C 0.0 **** -0.24
30972 H 51.86063508382345 16.319869406720244 14.293900588171581 H 0.0 **** 0.06
30973 H 50.50132573221076 16.544209572137106 13.166129500066337 H 0.0 **** 0.06
30974 H 50.24344183119066 15.708767616649595 14.717862338886622 H 0.0 **** 0.06
30975 H 51.18271795826276 14.920623100391964 13.427172756567614 H 0.0 **** 0.06
30976 C 16.059073667676362 56.29734739708732 65.79435392070698 C 0.0 **** -0.24
30977 H 15.5939364551604 57.06915893963412 66.4070774706116 H 0.0 **** 0.06
30978 H 15.830555435353695 55.3160189319903 66.20974133997431 H 0.0 **** 0.06
30979 H 17.138877890572477 56.445479700243425 65.78342134528683 H 0.0 **** 0.06
30980 H 15.672953366518591 56.36106082107477 64.77641647787287 H 0.0 **** 0.06
30981 C 104.75180398201394 84.12814812462301 32.04751705303588 C 0.0 **** -0.24
30982 H 105.62616046205927 83.48338241081211 31.961961482499923 H 0.0 **** 0.06
30983 H 104.36439674524111 84.3477931634975 31.052701217116812 H 0.0 **** 0.06
30984 H 105.03198681524938 85.0578241024229 32.54207441486119 H 0.0 **** 0.06
30985 H 103.9840074604154 83.62183942937003 32.63402703303382 H 0.0 **** 0.06
30986 C 11.08690654692505 68.99263246003699 62.07174701226927 C 0.0 **** -0.24
30987 H 10.407159586856915 69.34233074468479 62.84882104194901 H 0.0 **** 0.06
30988 H 10.93113329872507 67.92601506293697 61.90737569797949 H 0.0 **** 0.06
30989 H 12.11577526284649 69.16690846620723 62.384871344245425 H 0.0 **** 0.06
30990 H 10.891345040228344 69.5359073328352 61.1467588949244 H 0.0 **** 0.06
30991 C 105.38807132342151 31.180722598548698 26.975575880739882 C 0.0 **** -0.24
30992 H 106.30506296423363 31.648948974755342 27.333854086868286 H 0.0 **** 0.06
30993 H 104.7517844885113 31.935070787570623 26.512099056063704 H 0.0 **** 0.06
30994 H 104.86137474231032 30.725291131381226 27.814295000666306 H 0.0 **** 0.06
30995 H 105.63542169150037 30.413288983429197 26.241790947240702 H 0.0 **** 0.06
30996 C 93.17865292708545 104.61246230678559 17.61969547653075 C 0.0 **** -0.24
30997 H 93.38647128725867 103.83330648767755 18.352288505223953 H 0.0 **** 0.06
30998 H 92.2927555073426 105.1699404618618 17.923227539210416 H 0.0 **** 0.06
30999 H 93.00563721478144 104.15724144584672 16.64458553949413 H 0.0 **** 0.06
31000 H 94.0310230157666 105.289157635378 17.55810380041214 H 0.0 **** 0.06
31001 C 34.70488723896378 21.426497596875578 74.3409113865759 C 0.0 **** -0.24
31002 H 33.630958049719965 21.335657744011456 74.50204813944458 H 0.0 **** 0.06
31003 H 35.20627293258153 20.53484353080293 74.72101323505322 H 0.0 **** 0.06
31004 H 35.07799220549785 22.305102846061686 74.86729087866405 H 0.0 **** 0.06
31005 H 34.905688840566995 21.529057691891097 73.27446682210768 H 0.0 **** 0.06
31006 C 108.16743544894315 12.941158141737617 97.82382005382635 C 0.0 **** -0.24
31007 H 109.12196000931338 12.798414741106086 97.31778347217454 H 0.0 **** 0.06
31008 H 107.4259671461428 12.263652497313842 97.39887325269453 H 0.0 **** 0.06
31009 H 107.83660849693628 13.970908346782124 97.69169940439397 H 0.0 **** 0.06
31010 H 108.28555209600597 12.730721928231105 98.88684636058491 H 0.0 **** 0.06
31011 C 28.04135912073687 19.074087410201358 22.949594091496863 C 0.0 **** -0.24
31012 H 28.047383066457286 20.15805047611704 22.840811809492436 H 0.0 **** 0.06
31013 H 27.72877639894277 18.812915175906596 23.961767537068596 H 0.0 **** 0.06
31014 H 29.042202519285354 18.68430736056665 22.76649897926086 H 0.0 **** 0.06
31015 H 27.344878237970022 18.6410531270282 22.23134164833337 H 0.0 **** 0.06
31016 C 30.565376277418352 72.61084985420845 90.41798571176778 C 0.0 **** -0.24
31017 H 31.651823476488715 72.54424756398002 90.47474377774279 H 0.0 **** 0.06
31018 H 30.202472498032648 73.2946495983067 91.18698294572135 H 0.0 **** 0.06
31019 H 30.131801085812384 71.62310062965419 90.5757352178714 H 0.0 **** 0.06
31020 H 30.275481701217643 72.98236891983296 89.43550999027661 H 0.0 **** 0.06
31021 C 101.22751485647557 7.231854776844813 28.392388363677753 C 0.0 **** -0.24
31022 H 101.41149328355003 8.215243724665298 27.95876292605999 H 0.0 **** 0.06
31023 H 100.80504802939411 6.573196016808387 27.632723736717594 H 0.0 **** 0.06
31024 H 100.52615832885475 7.327140388372001 29.221797536666486 H 0.0 **** 0.06
31025 H 102.16554329417932 6.813758351432398 28.754849109461645 H 0.0 **** 0.06
31026 C 71.02953067390156 38.756877988736356 1.225547439555271 C 0.0 **** -0.24
31027 H 71.2038436206669 38.19217459204569 2.141964365880227 H 0.0 **** 0.06
31028 H 70.02388033153049 39.17653531188955 1.2440938085858306 H 0.0 **** 0.06
31029 H 71.13226824420339 38.094252300239795 0.3660859443145057 H 0.0 **** 0.06
31030 H 71.75962219110276 39.562279510559584 1.1526188783174973 H 0.0 **** 0.06
31031 C 103.5962149125547 36.69885417556749 46.90459218782064 C 0.0 **** -0.24
31032 H 103.81793920997379 37.134377231587536 45.93018730428116 H 0.0 **** 0.06
31033 H 103.8908749865173 37.39681207911144 47.68903984683715 H 0.0 **** 0.06
31034 H 104.14962562564021 35.76682620558125 47.02002319375782 H 0.0 **** 0.06
31035 H 102.52715792316731 36.4989540869893 46.97890897198374 H 0.0 **** 0.06
31036 C 79.90448277476668 100.28949622831118 11.560105799224687 C 0.0 **** -0.24
31037 H 78.9410541934264 99.9180713800188 11.90901524804157 H 0.0 **** 0.06
31038 H 80.17011441499714 101.18949996664055 12.116110336591888 H 0.0 **** 0.06
31039 H 79.83983460152308 100.52482671732668 10.497925013116145 H 0.0 **** 0.06
31040 H 80.66669128555758 99.52609695864017 11.718199555447654 H 0.0 **** 0.06
31041 C 27.976723603214992 53.46071460142216 54.33916216482069 C 0.0 **** -0.24
31042 H 28.237213198152176 52.67375323220833 53.63028353248521 H 0.0 **** 0.06
31043 H 26.954976192131255 53.31170095445466 54.68665887853707 H 0.0 **** 0.06
31044 H 28.05750771947288 54.430613514995535 53.85016032366611 H 0.0 **** 0.06
31045 H 28.65967013324729 53.42324378386553 55.18899328564556 H 0.0 **** 0.06
31046 C 89.55509307700133 26.558477013070515 59.545634372601825 C 0.0 **** -0.24
31047 H 89.46538366574308 27.06772939483389 58.58589893242653 H 0.0 **** 0.06
31048 H 90.08952527655941 25.618335149898257 59.40869507519467 H 0.0 **** 0.06
31049 H 88.56092223519794 26.35756653584623 59.94479747117404 H 0.0 **** 0.06
31050 H 90.1057366561754 27.191526285388036 60.241411009891806 H 0.0 **** 0.06
31051 C 38.2677156853627 20.922840595178087 19.126415207336976 C 0.0 **** -0.24
31052 H 39.06192535787898 20.65283666232844 19.821484031786127 H 0.0 **** 0.06
31053 H 38.118549907923864 22.002845471374997 19.147102170235883 H 0.0 **** 0.06
31054 H 37.34374980703646 20.422746308333785 19.417929627636966 H 0.0 **** 0.06
31055 H 38.546002341509535 20.6127540894947 18.118393958217325 H 0.0 **** 0.06
31056 C 23.299078237400607 48.42651565269091 90.15253175092458 C 0.0 **** -0.24
31057 H 24.34865595278731 48.351889235442115 89.86969021414477 H 0.0 **** 0.06
31058 H 22.67369355182541 48.14525748419888 89.30506451473676 H 0.0 **** 0.06
31059 H 23.07402142143323 49.45122581239144 90.44760354558107 H 0.0 **** 0.06
31060 H 23.100177299511756 47.755927427966014 90.9894533671146 H 0.0 **** 0.06
31061 C 11.839255961606938 48.61964477746022 43.80768187135814 C 0.0 **** -0.24
31062 H 12.661902709985455 48.115319882808706 44.316617712753384 H 0.0 **** 0.06
31063 H 11.728303440683803 49.6271658160224 44.207726525993735 H 0.0 **** 0.06
31064 H 10.917025965731682 48.061472984629575 43.96589027111159 H 0.0 **** 0.06
31065 H 12.053399237362825 48.67385805731777 42.73985628264725 H 0.0 **** 0.06
31066 C 84.62487287383931 51.692049912657986 93.78421944882575 C 0.0 **** -0.24
31067 H 83.64018592890989 51.895247795442735 94.20346046878967 H 0.0 **** 0.06
31068 H 84.51854962318671 51.10019163415086 92.8744601040779 H 0.0 **** 0.06
31069 H 85.22210590066143 51.139496590291905 94.50963891889393 H 0.0 **** 0.06
31070 H 85.12071573601901 52.634631677531544 93.54795384208757 H 0.0 **** 0.06
31071 C 86.412624571504 87.96938885045394 47.40995887214535 C 0.0 **** -0.24
31072 H 87.34394085273122 88.47126219657476 47.672216355009596 H 0.0 **** 0.06
31073 H 86.01137639667186 87.46582217553002 48.29015511730637 H 0.0 **** 0.06
31074 H 86.60415008828654 87.23645906372295 46.62703186081876 H 0.0 **** 0.06
31075 H 85.69265909441638 88.7046423663615 47.051829289445436 H 0.0 **** 0.06
31076 C 108.96839174002737 56.178783714087956 26.641643171411573 C 0.0 **** -0.24
31077 H 109.6482036334498 56.84935492073584 27.165302227445835 H 0.0 **** 0.06
31078 H 108.82595099626991 55.27217052985385 27.230486168436926 H 0.0 **** 0.06
31079 H 109.39099031500666 55.919097123158465 25.67043915587746 H 0.0 **** 0.06
31080 H 108.00744933945867 56.67385707165203 26.499070477543114 H 0.0 **** 0.06
31081 C 40.65696872486453 64.78403250351647 73.44585334653868 C 0.0 **** -0.24
31082 H 40.95392225319435 64.77180774654258 74.49422779626471 H 0.0 **** 0.06
31083 H 41.04658252227199 65.68297424361077 72.96829738876804 H 0.0 **** 0.06
31084 H 39.56876298150668 64.7770857587935 73.37610439776273 H 0.0 **** 0.06
31085 H 41.05767425844425 63.90281171038265 72.94494432426833 H 0.0 **** 0.06
31086 C 83.11786544781725 99.11953853662666 28.905214285678042 C 0.0 **** -0.24
31087 H 82.07752642178303 98.84331893076335 29.08236505999681 H 0.0 **** 0.06
31088 H 83.16114823977051 99.90694394606469 28.151584887087587 H 0.0 **** 0.06
31089 H 83.66968898845553 98.24869773430684 28.552659475705397 H 0.0 **** 0.06
31090 H 83.56079515231727 99.47937645875844 29.83343342375791 H 0.0 **** 0.06
31091 C 31.211488796569142 15.21453851655005 5.364087353958752 C 0.0 **** -0.24
31092 H 31.704647848341722 15.770314191114295 6.162398368840783 H 0.0 **** 0.06
31093 H 31.364963534849977 15.728236272277343 4.4150088597705945 H 0.0 **** 0.06
31094 H 30.14388362379438 15.148225706350729 5.573919846247037 H 0.0 **** 0.06
31095 H 31.632725061148022 14.21100147113782 5.307428258444162 H 0.0 **** 0.06
31096 C 17.92864031697799 81.66448091631275 1.9683314786396977 C 0.0 **** -0.24
31097 H 18.44886312323412 82.56184495060322 1.6337722591601391 H 0.0 **** 0.06
31098 H 18.384067364371905 80.78737621098281 1.5076445500738203 H 0.0 **** 0.06
31099 H 16.87883428654307 81.72432482967949 1.6785212904348583 H 0.0 **** 0.06
31100 H 18.000865691089874 81.58536499651746 3.052842431548413 H 0.0 **** 0.06
31101 C 82.49751651156511 67.6194185488197 106.42358019930415 C 0.0 **** -0.24
31102 H 82.38985700191412 68.54219670370404 106.99271965236888 H 0.0 **** 0.06
31103 H 83.53638386075069 67.2900352585358 106.45881066450887 H 0.0 **** 0.06
31104 H 82.20759213971634 67.79455341986336 105.38774021234346 H 0.0 **** 0.06
31105 H 81.85695804317547 66.84972813127163 106.85540704892563 H 0.0 **** 0.06
31106 C 71.25143600164063 88.35138939390254 106.64786809485075 C 0.0 **** -0.24
31107 H 72.06183873330286 87.73509732898827 107.03788398584175 H 0.0 **** 0.06
31108 H 70.3260235761789 88.10379904356336 107.16754752236076 H 0.0 **** 0.06
31109 H 71.13127893691768 88.159716998887 105.5812881076328 H 0.0 **** 0.06
31110 H 71.48785514130827 89.4034182922253 106.80476618237067 H 0.0 **** 0.06
31111 C 81.70570029568765 101.07938806960135 91.13284493967353 C 0.0 **** -0.24
31112 H 81.46722032739234 101.47262353042001 92.1210777264309 H 0.0 **** 0.06
31113 H 80.97392903228692 100.31875620049578 90.85904412448764 H 0.0 **** 0.06
31114 H 82.70157307616233 100.63655419068564 91.14997464686036 H 0.0 **** 0.06
31115 H 81.68028162834376 101.88859126473818 90.40409473151425 H 0.0 **** 0.06
31116 C 28.407474036768463 53.099115921991746 30.70352112393107 C 0.0 **** -0.24
31117 H 27.4978398148545 53.51532698557214 30.269545501668574 H 0.0 **** 0.06
31118 H 28.199479062547596 52.74936983272227 31.715250178792274 H 0.0 **** 0.06
31119 H 29.178413309156497 53.869006127950406 30.735964517634997 H 0.0 **** 0.06
31120 H 28.75214892793923 52.26467909758176 30.093834151416928 H 0.0 **** 0.06
31121 C 80.94664867677994 45.42674787772967 43.55958030424529 C 0.0 **** -0.24
31122 H 80.76462864974204 44.98426865534566 42.580168381694186 H 0.0 **** 0.06
31123 H 81.20583409638304 44.64124746363086 44.270215185827766 H 0.0 **** 0.06
31124 H 80.04697663414777 45.941908233718266 43.89826741107833 H 0.0 **** 0.06
31125 H 81.7681997831706 46.13933544639889 43.488653702594554 H 0.0 **** 0.06
31126 C 24.791238466404934 96.7410943508012 40.93477113640938 C 0.0 **** -0.24
31127 H 25.632864760561873 97.35332983904249 41.257995096505724 H 0.0 **** 0.06
31128 H 24.777051459967126 95.81241671431489 41.50640870042503 H 0.0 **** 0.06
31129 H 24.894108906527023 96.5128455284844 39.87376358385994 H 0.0 **** 0.06
31130 H 23.86155678501234 97.28429599090715 41.101539741019536 H 0.0 **** 0.06
31131 C 5.212142761149591 90.44826177146784 82.84009690156014 C 0.0 **** -0.24
31132 H 5.993326250686927 89.80760501962827 82.42988331328496 H 0.0 **** 0.06
31133 H 4.272306185992436 89.89708151416005 82.87568358424531 H 0.0 **** 0.06
31134 H 5.094722523436474 91.32803279914376 82.20713299572543 H 0.0 **** 0.06
31135 H 5.4907515780046605 90.75919240512495 83.84715606055101 H 0.0 **** 0.06
31136 C 48.02000554149041 67.99002911801986 30.44769714031355 C 0.0 **** -0.24
31137 H 48.691333836015225 68.32720566880381 29.657722979930384 H 0.0 **** 0.06
31138 H 47.6378871185767 66.99870692437138 30.20035371048806 H 0.0 **** 0.06
31139 H 47.18721926003714 68.68800847959973 30.53891517285362 H 0.0 **** 0.06
31140 H 48.56185106378329 67.94568937769694 31.3921389079768 H 0.0 **** 0.06
31141 C 56.536746467775885 25.193272069425745 24.86459633236194 C 0.0 **** -0.24
31142 H 56.04454115922965 24.8644509914933 23.948621135887095 H 0.0 **** 0.06
31143 H 57.60566695191759 25.304764038591486 24.682161651716484 H 0.0 **** 0.06
31144 H 56.377741957270786 24.451107832360037 25.647737276554693 H 0.0 **** 0.06
31145 H 56.119625573840004 26.149158983213454 25.179061205875286 H 0.0 **** 0.06
31146 C 79.34188098716953 75.18268867699351 2.5676136527393254 C 0.0 **** -0.24
31147 H 79.504564360561 76.19259310009457 2.1899682059632113 H 0.0 **** 0.06
31148 H 80.30214758377113 74.68052351465437 2.685889114510786 H 0.0 **** 0.06
31149 H 78.72472497738482 74.62664682394285 1.8622415832868597 H 0.0 **** 0.06
31150 H 78.83621760468515 75.23294257326452 3.531936707896179 H 0.0 **** 0.06
31151 C 29.141549465649362 98.90489886130534 91.83673641703461 C 0.0 **** -0.24
31152 H 29.16842121504338 98.07411337765487 92.54193940857533 H 0.0 **** 0.06
31153 H 29.438908691707802 99.82228230775421 92.34571285481849 H 0.0 **** 0.06
31154 H 28.129597741338216 99.01693352589453 91.44703034436282 H 0.0 **** 0.06
31155 H 29.82808410067758 98.70521703705958 91.0150003611322 H 0.0 **** 0.06
31156 C 64.66407295409448 23.96701769031165 53.54487890680821 C 0.0 **** -0.24
31157 H 64.54668950728342 23.689603428345293 54.59201369933385 H 0.0 **** 0.06
31158 H 65.55266056808784 23.482311029055552 53.13831839075715 H 0.0 **** 0.06
31159 H 64.7707851678017 25.048993227695064 53.46457122744647 H 0.0 **** 0.06
31160 H 63.78694738950321 23.645558343648332 52.98371808300965 H 0.0 **** 0.06
31161 C 14.045672376454775 97.19020012475256 11.948863262677207 C 0.0 **** -0.24
31162 H 14.477164011146797 96.22078160664371 11.701583017128229 H 0.0 **** 0.06
31163 H 13.949185798983422 97.27955971901626 13.03114792624207 H 0.0 **** 0.06
31164 H 13.062533093944296 97.27874236161045 11.486896518630857 H 0.0 **** 0.06
31165 H 14.695085057381505 97.98230556347444 11.575687669625694 H 0.0 **** 0.06
31166 C 72.32498692112648 46.67400420547142 35.41055003699782 C 0.0 **** -0.24
31167 H 72.32132125335946 46.55784498362809 34.32712471771353 H 0.0 **** 0.06
31168 H 71.32916811181252 46.96386487558132 35.74759396923599 H 0.0 **** 0.06
31169 H 73.04302200464093 47.44576962551943 35.68976800012135 H 0.0 **** 0.06
31170 H 72.60644142141635 45.729498722871085 35.876676248057606 H 0.0 **** 0.06
31171 C 96.79870980479976 59.345969418825064 31.75942873899544 C 0.0 **** -0.24
31172 H 97.56548019873205 60.10555076626679 31.911109961609412 H 0.0 **** 0.06
31173 H 97.21689023031601 58.361278679872385 31.968240001115618 H 0.0 **** 0.06
31174 H 96.4511063856379 59.3824054730872 30.72733179371238 H 0.0 **** 0.06
31175 H 95.96169025497306 59.53701075953859 32.43156740076603 H 0.0 **** 0.06
31176 C 8.485637772579693 98.84364808124161 87.65051688151925 C 0.0 **** -0.24
31177 H 7.872108055406116 99.63316108464002 87.2161732596345 H 0.0 **** 0.06
31178 H 8.050924701140545 98.52636491114112 88.5982936432203 H 0.0 **** 0.06
31179 H 9.494956653499827 99.21797816689988 87.8187316235086 H 0.0 **** 0.06
31180 H 8.522226622179446 97.99510186138892 86.96611165411593 H 0.0 **** 0.06
31181 C 46.5810082868602 51.69361716267699 100.47065665426015 C 0.0 **** -0.24
31182 H 47.02736391328463 52.66447365050015 100.68522642130756 H 0.0 **** 0.06
31183 H 45.77869656372923 51.81602266661685 99.7430079356433 H 0.0 **** 0.06
31184 H 46.17764944795331 51.26801872318989 101.38935489941497 H 0.0 **** 0.06
31185 H 47.34235768384485 51.02675973838136 100.06457760819833 H 0.0 **** 0.06
31186 C 95.18229943116177 27.829230542981897 63.47593059331916 C 0.0 **** -0.24
31187 H 94.12688026039945 28.10028803857646 63.42861097128622 H 0.0 **** 0.06
31188 H 95.7730419857121 28.57610149672567 62.94506347123067 H 0.0 **** 0.06
31189 H 95.3277205780588 26.853348886095223 63.01376125736789 H 0.0 **** 0.06
31190 H 95.49952389676173 27.788622571394235 64.51889540153712 H 0.0 **** 0.06
31191 C 104.87730891026001 80.56009996396057 101.49604747858473 C 0.0 **** -0.24
31192 H 104.93417284935659 81.56537072736525 101.9145891031281 H 0.0 **** 0.06
31193 H 104.03085397106449 80.49886351932139 100.8122573190011 H 0.0 **** 0.06
31194 H 104.7465014032802 79.8387974668387 102.30310695491005 H 0.0 **** 0.06
31195 H 105.79836341793224 80.3396310144035 100.95657097902154 H 0.0 **** 0.06
31196 C 104.28310245265405 67.90636357103205 51.094155947355205 C 0.0 **** -0.24
31197 H 103.95077942783732 67.9226866372957 50.05639884410742 H 0.0 **** 0.06
31198 H 105.17436013370687 68.52603480844226 51.20017122749684 H 0.0 **** 0.06
31199 H 104.51461232268684 66.88210625302878 51.385106033682895 H 0.0 **** 0.06
31200 H 103.49149921272374 68.2957069292446 51.73564796149571 H 0.0 **** 0.06
31201 C 98.78556239505076 49.366141880077684 60.60861679108331 C 0.0 **** -0.24
31202 H 98.63288977974577 48.849867659244346 61.55676862560375 H 0.0 **** 0.06
31203 H 99.8207429467265 49.240915643873315 60.289945307157325 H 0.0 **** 0.06
31204 H 98.56808671472474 50.42672724365093 60.73405947518671 H 0.0 **** 0.06
31205 H 98.11975823339564 48.94469396103822 59.85564845050507 H 0.0 **** 0.06
31206 C 16.057273807532056 13.07930933589654 79.46931310302415 C 0.0 **** -0.24
31207 H 16.519418424122975 12.30502130773769 80.08191434353893 H 0.0 **** 0.06
31208 H 16.123422363567826 12.798662273235522 78.4180003652192 H 0.0 **** 0.06
31209 H 16.574767890805546 14.025542193534477 79.62628794540865 H 0.0 **** 0.06
31210 H 15.00909395661435 13.18776559413297 79.75151374358424 H 0.0 **** 0.06
31211 C 93.98341488358379 38.75977385063675 99.35230307283047 C 0.0 **** -0.24
31212 H 93.69290043768733 39.46831284063006 98.5758323517623 H 0.0 **** 0.06
31213 H 95.00995289864326 38.95959006068719 99.6607217576709 H 0.0 **** 0.06
31214 H 93.91170626454782 37.74469919333578 98.96313842749947 H 0.0 **** 0.06
31215 H 93.31866247514292 38.868681834982624 100.20965841633983 H 0.0 **** 0.06
31216 C 105.29757838561189 33.09910129668987 86.87205926455067 C 0.0 **** -0.24
31217 H 104.62951945931103 32.998579962204474 86.01675488117627 H 0.0 **** 0.06
31218 H 104.7469548037857 33.51763975259436 87.715846089585 H 0.0 **** 0.06
31219 H 106.12343593846798 33.76156612420559 86.6123064370941 H 0.0 **** 0.06
31220 H 105.68901313429714 32.11973693619018 87.1446781938107 H 0.0 **** 0.06
31221 C 6.3193629476647 49.00940008301202 69.69546240718103 C 0.0 **** -0.24
31222 H 7.1313244665064985 49.66662918651114 70.00581258574425 H 0.0 **** 0.06
31223 H 6.041076675201083 48.3592473584913 70.52447568459122 H 0.0 **** 0.06
31224 H 6.645506992260906 48.40183478745303 68.85090845949613 H 0.0 **** 0.06
31225 H 5.459453014917656 49.61100620826168 69.39979050226003 H 0.0 **** 0.06
31226 C 12.519565247707476 33.48971565445247 58.02461253958624 C 0.0 **** -0.24
31227 H 12.010152283784464 34.236051627105944 57.415237532491915 H 0.0 **** 0.06
31228 H 13.580353637322219 33.47919865314536 57.775483625089755 H 0.0 **** 0.06
31229 H 12.089966443924027 32.50665714192394 57.828682057610806 H 0.0 **** 0.06
31230 H 12.395665479884826 33.73635546466844 59.0786824957266 H 0.0 **** 0.06
31231 C 13.352139161532605 84.85518478230108 21.170726585879905 C 0.0 **** -0.24
31232 H 14.127101664699026 84.2004879964544 21.568948991621866 H 0.0 **** 0.06
31233 H 13.76802984910384 85.84817130677568 21.00078085937399 H 0.0 **** 0.06
31234 H 12.53057260862407 84.92167305702661 21.884735427713125 H 0.0 **** 0.06
31235 H 12.982573618128256 84.44870350847424 20.228586886895982 H 0.0 **** 0.06
31236 C 67.01017110818327 1.7921240758947903 88.97324717613444 C 0.0 **** -0.24
31237 H 67.12121887144082 2.093203165251765 87.9315117759316 H 0.0 **** 0.06
31238 H 67.6935874172031 0.9702351954259285 89.18940854789275 H 0.0 **** 0.06
31239 H 65.98422302326611 1.4680587928116182 89.14955687792593 H 0.0 **** 0.06
31240 H 67.24053147121717 2.637580032522038 89.62187897906813 H 0.0 **** 0.06
31241 C 99.7928091989641 69.06821765481013 51.403311529127706 C 0.0 **** -0.24
31242 H 99.0362362695941 69.79182130984358 51.099272003309125 H 0.0 **** 0.06
31243 H 100.63610720129203 69.59298942115946 51.85309811477029 H 0.0 **** 0.06
31244 H 100.1340539179206 68.5114230922715 50.53053852019826 H 0.0 **** 0.06
31245 H 99.36446342659946 68.37873365519083 52.13101723394186 H 0.0 **** 0.06
31246 C 58.320155569805166 99.58006886884365 92.50447770549226 C 0.0 **** -0.24
31247 H 58.81909374781273 99.26877699412323 93.4215027111 H 0.0 **** 0.06
31248 H 58.59631201870954 98.90609650292336 91.69370294215494 H 0.0 **** 0.06
31249 H 58.62491415217272 100.59685382981297 92.2523358365575 H 0.0 **** 0.06
31250 H 57.23993545298114 99.55096000622699 92.65014883610388 H 0.0 **** 0.06
31251 C 50.020127669748774 45.365441807343394 37.584859659275374 C 0.0 **** -0.24
31252 H 50.965551358324745 45.04719667023721 38.023509766137295 H 0.0 **** 0.06
31253 H 49.26067248287606 44.60382079177234 37.76577174761122 H 0.0 **** 0.06
31254 H 50.14716955487617 45.50383878110475 36.51120026393406 H 0.0 **** 0.06
31255 H 49.707374303821524 46.30635457441367 38.03768232216706 H 0.0 **** 0.06
31256 C 50.98827617912055 48.76665614600766 35.228164189229744 C 0.0 **** -0.24
31257 H 50.83523520596058 47.87655011017631 34.616973853586245 H 0.0 **** 0.06
31258 H 51.98840789223272 48.74191159657293 35.66037606579124 H 0.0 **** 0.06
31259 H 50.246456789776566 48.79045843147739 36.02565352844809 H 0.0 **** 0.06
31260 H 50.88224584625405 49.65555914916175 34.6062149242201 H 0.0 **** 0.06
31261 C 26.178384748858363 59.13631736057967 60.73551557970495 C 0.0 **** -0.24
31262 H 26.78467590173713 59.19069630584866 59.83114295290727 H 0.0 **** 0.06
31263 H 25.850613211122294 58.10854432592387 60.89153247346462 H 0.0 **** 0.06
31264 H 25.3081595910362 59.78435034309274 60.629316181729735 H 0.0 **** 0.06
31265 H 26.771788878795732 59.461715305860864 61.59040774617341 H 0.0 **** 0.06
31266 C 59.807868324139804 61.12592003744933 107.56907305176523 C 0.0 **** -0.24
31267 H 58.86051876192323 61.47286815943407 107.98184014930887 H 0.0 **** 0.06
31268 H 60.51003041960638 60.93684966823206 108.38034156015321 H 0.0 **** 0.06
31269 H 60.21567475500018 61.88783402775577 106.9047855768149 H 0.0 **** 0.06
31270 H 59.643933453515274 60.20551506638455 107.0079492247188 H 0.0 **** 0.06
31271 C 96.57768472518163 109.40111306360114 73.83911122832069 C 0.0 **** -0.24
31272 H 97.31936289919354 108.60718584230727 73.9259035595332 H 0.0 **** 0.06
31273 H 96.93702625716695 110.2929213361717 74.35329754477925 H 0.0 **** 0.06
31274 H 95.64081426469612 109.07410179317264 74.29093228517218 H 0.0 **** 0.06
31275 H 96.41260452543847 109.62991840966288 72.78614469682111 H 0.0 **** 0.06
31276 C 1.6814440952833678 7.105943549574889 67.03339830759819 C 0.0 **** -0.24
31277 H 0.9289514979430038 6.393547446511363 67.37171110943774 H 0.0 **** 0.06
31278 H 1.920862757272019 7.792442372210493 67.84599044024867 H 0.0 **** 0.06
31279 H 1.2935463288388434 7.668199163561274 66.1842311922619 H 0.0 **** 0.06
31280 H 2.5822860415761113 6.5691083013505285 66.73405965771511 H 0.0 **** 0.06
31281 C 41.178662301324266 51.560511008655986 98.7008239495076 C 0.0 **** -0.24
31282 H 41.055826220829914 50.64051393528746 98.12867485872118 H 0.0 **** 0.06
31283 H 41.937463115695834 52.18343216145799 98.22709572463276 H 0.0 **** 0.06
31284 H 41.489773410167345 51.31702797939387 99.71731881759877 H 0.0 **** 0.06
31285 H 40.23185276977978 52.09886729316526 98.72992784442522 H 0.0 **** 0.06
31286 C 94.39848551485721 86.22793373651936 24.304622115738596 C 0.0 **** -0.24
31287 H 94.70362600307249 85.89276033548401 25.296624135517902 H 0.0 **** 0.06
31288 H 94.96232416493444 87.12096077760684 24.033298342831273 H 0.0 **** 0.06
31289 H 93.33273626747926 86.45828395585856 24.311119979968794 H 0.0 **** 0.06
31290 H 94.59583481063912 85.43942950136541 23.579050518834322 H 0.0 **** 0.06
31291 C 30.159638648638804 108.05065212454433 59.872792051619925 C 0.0 **** -0.24
31292 H 30.131418347790543 109.1407683249671 59.873887254833264 H 0.0 **** 0.06
31293 H 29.163624278376375 107.66165127217019 60.08526462549138 H 0.0 **** 0.06
31294 H 30.856280576864634 107.7051107502762 60.63621199956545 H 0.0 **** 0.06
31295 H 30.48723293377219 107.69686292860982 58.894457176488835 H 0.0 **** 0.06
31296 C 21.30557317687007 94.93848117778643 13.124874031762943 C 0.0 **** -0.24
31297 H 20.700858805217422 95.78747017168484 13.443362760131492 H 0.0 **** 0.06
31298 H 21.45118423832963 94.25999241573332 13.965836168125293 H 0.0 **** 0.06
31299 H 22.27285368831349 95.29398233877143 12.772272113492988 H 0.0 **** 0.06
31300 H 20.795843647952353 94.4117635163569 12.317746900568295 H 0.0 **** 0.06
31301 C 9.497843312083859 89.69037317960391 34.708862761830545 C 0.0 **** -0.24
31302 H 9.888993251846358 89.78914432226583 33.695945252008556 H 0.0 **** 0.06
31303 H 10.169396335332877 89.0658897621768 35.29800608836106 H 0.0 **** 0.06
31304 H 8.51073713688902 89.23085797769386 34.67284917574824 H 0.0 **** 0.06
31305 H 9.422776551451904 90.67721728838154 35.165984810421406 H 0.0 **** 0.06
31306 C 61.3636492874884 64.630659080685 108.44288181866929 C 0.0 **** -0.24
31307 H 61.98482189471383 63.89307967813534 107.93458555928814 H 0.0 **** 0.06
31308 H 60.316451032456456 64.33826265568626 108.3671982932547 H 0.0 **** 0.06
31309 H 61.50388143555344 65.60607474394641 107.97796887052709 H 0.0 **** 0.06
31310 H 61.65089806985753 64.68540528051415 109.49346209152755 H 0.0 **** 0.06
31311 C 3.5158185536497797 16.26915506094045 49.926732942881756 C 0.0 **** -0.24
31312 H 3.3645352858323747 16.28164844258852 48.847221402525406 H 0.0 **** 0.06
31313 H 2.8749496058691477 17.017287854388357 50.3917803686669 H 0.0 **** 0.06
31314 H 4.559365246164219 16.49352096737283 50.149616654065596 H 0.0 **** 0.06
31315 H 3.2656700916797377 15.282196191670224 50.31617332566191 H 0.0 **** 0.06
31316 C 48.63454723137269 77.07434988742109 20.533075846849812 C 0.0 **** -0.24
31317 H 49.4113411436405 77.54160646093827 21.139368215604918 H 0.0 **** 0.06
31318 H 48.68022329079372 75.9913330589892 20.658040783458404 H 0.0 **** 0.06
31319 H 48.79231103758761 77.3256975447297 19.484414422571604 H 0.0 **** 0.06
31320 H 47.657533925058345 77.43591506276329 20.85120224727015 H 0.0 **** 0.06
31321 C 7.884387024604653 30.33704622869277 103.21180907719939 C 0.0 **** -0.24
31322 H 7.154944574962306 30.350899580716032 102.4026202183923 H 0.0 **** 0.06
31323 H 7.384282598057416 30.558163907479837 104.15508604131074 H 0.0 **** 0.06
31324 H 8.652467652088465 31.086975425188598 103.02189797065623 H 0.0 **** 0.06
31325 H 8.34593874537452 29.350883581696166 103.26826381425687 H 0.0 **** 0.06
31326 C 68.32902062373444 64.12404008705322 103.40510079355806 C 0.0 **** -0.24
31327 H 67.33336325195916 63.836205519241076 103.74088564287561 H 0.0 **** 0.06
31328 H 68.9429664642052 64.38215879609768 104.26853935467034 H 0.0 **** 0.06
31329 H 68.25436406655393 64.98490687033367 102.74142949328416 H 0.0 **** 0.06
31330 H 68.78630372454126 63.290860820546044 102.86976965610708 H 0.0 **** 0.06
31331 C 55.444790535506634 33.6263059653067 74.24864118611623 C 0.0 **** -0.24
31332 H 55.606183137811406 34.251416973072075 75.1273274548033 H 0.0 **** 0.06
31333 H 55.085919384952994 32.64564593912853 74.56230710976524 H 0.0 **** 0.06
31334 H 56.382802887390895 33.51400161183127 73.70499753487346 H 0.0 **** 0.06
31335 H 54.70270659550915 34.09476601094049 73.60172967632587 H 0.0 **** 0.06
31336 C 19.62734129718939 41.6258275686961 38.031440780829314 C 0.0 **** -0.24
31337 H 18.889779446490564 42.264986002459835 37.54555715163968 H 0.0 **** 0.06
31338 H 20.420472746708782 42.242986640452024 38.45337210301664 H 0.0 **** 0.06
31339 H 20.051921842575553 40.93945738996454 37.297771047278886 H 0.0 **** 0.06
31340 H 19.146458766567434 41.05629620858506 38.82618340689631 H 0.0 **** 0.06
31341 C 103.27792962775071 81.33771103678956 28.572369817349973 C 0.0 **** -0.24
31342 H 103.84755550532452 82.03669070379351 27.960351334145102 H 0.0 **** 0.06
31343 H 102.63295504060686 80.73589214459113 27.931562747001436 H 0.0 **** 0.06
31344 H 102.667507020146 81.89291192976174 29.285226126676754 H 0.0 **** 0.06
31345 H 103.96478833534033 80.68556775343933 29.11321655198727 H 0.0 **** 0.06
31346 C 77.33288463487457 23.597251993032593 39.74900330383616 C 0.0 **** -0.24
31347 H 77.73783837882746 23.746278037832102 38.747403767723256 H 0.0 **** 0.06
31348 H 77.34779104619594 24.54239954153601 40.291003980567154 H 0.0 **** 0.06
31349 H 77.93936983257368 22.8639532706245 40.279577050226294 H 0.0 **** 0.06
31350 H 76.30732562088966 23.235717715136992 39.67539265322455 H 0.0 **** 0.06
31351 C 56.26964523276206 31.70879032528473 77.80778972935701 C 0.0 **** -0.24
31352 H 57.18509790204189 31.421957482722625 78.32533122305773 H 0.0 **** 0.06
31353 H 56.343816930645005 32.74990598033104 77.49004497571917 H 0.0 **** 0.06
31354 H 55.420221397759065 31.593700667165315 78.48105593231361 H 0.0 **** 0.06
31355 H 56.131216378084616 31.071095018913823 76.93551285730487 H 0.0 **** 0.06
31356 C 104.8176056668342 83.11038184507132 80.51989673935697 C 0.0 **** -0.24
31357 H 104.3171654312186 82.1541115584677 80.36929943982676 H 0.0 **** 0.06
31358 H 105.87371505208881 82.938333467587 80.72942054095085 H 0.0 **** 0.06
31359 H 104.36011521070247 83.6298403793759 81.3617406463888 H 0.0 **** 0.06
31360 H 104.71916136333914 83.71699286781035 79.6200597466298 H 0.0 **** 0.06
31361 C 79.14533705058051 86.13392891816261 57.62709261545674 C 0.0 **** -0.24
31362 H 78.7756569069669 85.84336693687277 56.643497570789336 H 0.0 **** 0.06
31363 H 80.1742853310268 86.48511281217998 57.538349936229594 H 0.0 **** 0.06
31364 H 79.11049293118816 85.27472811209464 58.297293145609075 H 0.0 **** 0.06
31365 H 78.52236813849316 86.93306454368752 58.02762576262239 H 0.0 **** 0.06
31366 C 35.60233040242866 18.883910919653744 100.26195647483408 C 0.0 **** -0.24
31367 H 35.608463791713916 18.493557540197017 99.24387714419723 H 0.0 **** 0.06
31368 H 35.160018050861964 19.880534889808743 100.26517347601198 H 0.0 **** 0.06
31369 H 36.62495188801162 18.938526350100787 100.63603580274595 H 0.0 **** 0.06
31370 H 35.016217431692866 18.223596487387212 100.90060290693675 H 0.0 **** 0.06
31371 C 78.21021944466503 86.16928366530061 25.02149214931029 C 0.0 **** -0.24
31372 H 78.63231849386125 86.56145732834128 25.947716291209588 H 0.0 **** 0.06
31373 H 78.52481848665681 86.79498498792532 24.185706168284327 H 0.0 **** 0.06
31374 H 77.12176067917227 86.17297212049766 25.088453562104746 H 0.0 **** 0.06
31375 H 78.56175558044549 85.14986554930317 24.86661204159489 H 0.0 **** 0.06
31376 C 43.55672727628894 78.00311020109714 53.10887220164301 C 0.0 **** -0.24
31377 H 43.911632882385504 76.9827572360175 53.25485067568923 H 0.0 **** 0.06
31378 H 44.308275163007465 78.57502042038911 52.56388836837772 H 0.0 **** 0.06
31379 H 43.37881578080908 78.46733025003395 54.07853919335025 H 0.0 **** 0.06
31380 H 42.628421532311336 77.98636531525493 52.5381210279358 H 0.0 **** 0.06
31381 C 99.1167833681888 43.78206081654935 24.771413644138647 C 0.0 **** -0.24
31382 H 98.5616488394914 43.083617805566604 24.145762906299467 H 0.0 **** 0.06
31383 H 100.14044871870107 43.86327775884206 24.40606324369375 H 0.0 **** 0.06
31384 H 99.12548748346492 43.420898442523395 25.799813295128672 H 0.0 **** 0.06
31385 H 98.639018791995 44.76129134112418 24.73502035760461 H 0.0 **** 0.06
31386 C 58.661157634569086 102.12117969991459 105.93315519723262 C 0.0 **** -0.24
31387 H 58.12710567924566 102.78694220454963 105.25492464876189 H 0.0 **** 0.06
31388 H 59.293858138842026 101.44664570754776 105.35587982907776 H 0.0 **** 0.06
31389 H 57.942176099606876 101.53970887763046 106.51030344555826 H 0.0 **** 0.06
31390 H 59.278714723888626 102.71139153565969 106.60969792369406 H 0.0 **** 0.06
31391 C 50.3271763309239 67.42980779043262 59.837045312867986 C 0.0 **** -0.24
31392 H 50.321934737986666 67.91811646853489 58.86245358614201 H 0.0 **** 0.06
31393 H 51.2026387062674 67.75332774348374 60.40074946425477 H 0.0 **** 0.06
31394 H 50.36173238613117 66.34859945550431 59.70118028158828 H 0.0 **** 0.06
31395 H 49.423251223711056 67.6990860069634 60.38328381326187 H 0.0 **** 0.06
31396 C 13.989348235515592 45.77244511606699 13.401417096732473 C 0.0 **** -0.24
31397 H 13.733429742468246 46.421605362264984 12.56320910819997 H 0.0 **** 0.06
31398 H 13.102718643799136 45.2234228968579 13.718381492763427 H 0.0 **** 0.06
31399 H 14.357649062225207 46.37778530332932 14.229853959926672 H 0.0 **** 0.06
31400 H 14.76256948238435 45.06975645077182 13.093816194359292 H 0.0 **** 0.06
31401 C 41.08169075180312 99.96608272087192 50.42848195240697 C 0.0 **** -0.24
31402 H 42.122432702997486 99.64481098339684 50.39235020222253 H 0.0 **** 0.06
31403 H 40.677293416522915 100.00224286358049 49.417047777675805 H 0.0 **** 0.06
31404 H 41.02319357826872 100.95732344372813 50.88017639312426 H 0.0 **** 0.06
31405 H 40.50468896177418 99.26089123757477 51.02645248201293 H 0.0 **** 0.06
31406 C 46.542385927126844 18.244570030733655 59.185500330579046 C 0.0 **** -0.24
31407 H 46.76863910131286 19.303686461813527 59.060493243437776 H 0.0 **** 0.06
31408 H 45.54472866387306 18.03820761673694 58.79697563397257 H 0.0 **** 0.06
31409 H 46.58086022687462 17.987828304296983 60.244185497597456 H 0.0 **** 0.06
31410 H 47.27466263877943 17.64964694527461 58.64096921791924 H 0.0 **** 0.06
31411 C 108.19180839527041 40.58184272231897 88.49861475732169 C 0.0 **** -0.24
31412 H 108.86067921297595 39.77714343191943 88.80633511708753 H 0.0 **** 0.06
31413 H 108.77156612566195 41.48920937870297 88.32658094040156 H 0.0 **** 0.06
31414 H 107.45653474260916 40.76240334354635 89.28208736653545 H 0.0 **** 0.06
31415 H 107.68128799774759 40.29711652026096 87.57860618259573 H 0.0 **** 0.06
31416 C 32.82989588561078 29.407633847474415 97.35958416569363 C 0.0 **** -0.24
31417 H 32.642733201856544 29.68231419564364 96.32153325373322 H 0.0 **** 0.06
31418 H 33.9006767000854 29.27158148725215 97.511133046602 H 0.0 **** 0.06
31419 H 32.30952262328303 28.477386578011107 97.5883931878679 H 0.0 **** 0.06
31420 H 32.467187418099456 30.198681720277875 98.01573253389583 H 0.0 **** 0.06
31421 C 73.66384121672849 12.189230642014305 107.4283969888609 C 0.0 **** -0.24
31422 H 74.72951748142555 12.4069608316406 107.35050874799273 H 0.0 **** 0.06
31423 H 73.35377807353888 11.580027866024821 106.57939717344465 H 0.0 **** 0.06
31424 H 73.10217327496474 13.123912256965934 107.43047421309626 H 0.0 **** 0.06
31425 H 73.47118600575607 11.647453340162645 108.35434201086443 H 0.0 **** 0.06
31426 C 57.34424166802854 86.02071697658181 12.724539131193701 C 0.0 **** -0.24
31427 H 56.91936047265148 85.88723485713285 11.72912293127741 H 0.0 **** 0.06
31428 H 56.89034562960121 85.30528829033301 13.411255310364606 H 0.0 **** 0.06
31429 H 57.145123227603094 87.03448959428061 13.071100466549964 H 0.0 **** 0.06
31430 H 58.42106862147481 85.85445018210117 12.684979535864318 H 0.0 **** 0.06
31431 C 93.39331866588788 105.30287321595443 32.04637723944012 C 0.0 **** -0.24
31432 H 93.03139059918271 105.33143501644543 31.018606758119226 H 0.0 **** 0.06
31433 H 92.84081477225615 104.54738326886753 32.604806500069415 H 0.0 **** 0.06
31434 H 93.24504465238817 106.27919655576214 32.51023338954974 H 0.0 **** 0.06
31435 H 94.4548539597248 105.05656194440886 32.051516650500815 H 0.0 **** 0.06
31436 C 83.18831035451808 91.94637680103472 20.34666704474995 C 0.0 **** -0.24
31437 H 82.6531225783949 92.53177595797683 19.59745822867646 H 0.0 **** 0.06
31438 H 82.98915114708905 90.88645981248447 20.18885878980649 H 0.0 **** 0.06
31439 H 82.85150712588174 92.23681986292868 21.3419485576907 H 0.0 **** 0.06
31440 H 84.258294154002 92.13410507568346 20.256330810250574 H 0.0 **** 0.06
31441 C 9.157013539473951 23.37242824023849 16.94905926569433 C 0.0 **** -0.24
31442 H 10.098677025277112 23.895107816993516 16.7789891630608 H 0.0 **** 0.06
31443 H 8.465770208286102 24.03288910093579 17.474838771952463 H 0.0 **** 0.06
31444 H 9.33895610823292 22.482012423938656 17.55058268402928 H 0.0 **** 0.06
31445 H 8.72490563747398 23.08287141302796 15.990877395465219 H 0.0 **** 0.06
31446 C 36.92494472081951 1.3082433182267819 32.42596925395101 C 0.0 **** -0.24
31447 H 37.787474796130724 1.7678466760847256 31.944106773150423 H 0.0 **** 0.06
31448 H 36.01469719266308 1.8121491311945972 32.09954119407962 H 0.0 **** 0.06
31449 H 37.0217097011066 1.39725417504465 33.50763067437384 H 0.0 **** 0.06
31450 H 36.87509206567063 0.2538376660901429 32.15170594079733 H 0.0 **** 0.06
31451 C 49.5435389598062 27.290065419172194 27.392289784472325 C 0.0 **** -0.24
31452 H 49.3974429681424 26.209514326097786 27.3960583041883 H 0.0 **** 0.06
31453 H 48.586935441403796 27.78590963014689 27.559059455342762 H 0.0 **** 0.06
31454 H 49.95142044124549 27.597560379142443 26.429384072427418 H 0.0 **** 0.06
31455 H 50.238238115633095 27.564334909213336 28.185809893509663 H 0.0 **** 0.06
31456 C 84.33337504793788 69.0923861859306 66.62147125531817 C 0.0 **** -0.24
31457 H 84.28654158606625 69.69525412730133 65.71377923317529 H 0.0 **** 0.06
31458 H 85.32605247479108 68.65306247569566 66.71482552107008 H 0.0 **** 0.06
31459 H 83.58776316254155 68.29942385726537 66.56917887331753 H 0.0 **** 0.06
31460 H 84.1314017094177 69.72411763308452 67.48731597869018 H 0.0 **** 0.06
31461 C 0.5815617023058053 41.136304730981685 95.04079264108856 C 0.0 **** -0.24
31462 H 0.42500004056226715 40.39220893078158 95.82264353340815 H 0.0 **** 0.06
31463 H 0.242575793931195 42.110210172068626 95.39387422862771 H 0.0 **** 0.06
31464 H 0.016369602291462115 40.85431223440467 94.15276338576976 H 0.0 **** 0.06
31465 H 1.6421903959416682 41.187289349517314 94.79602300723508 H 0.0 **** 0.06
31466 C 107.27582006771915 72.6178078725479 87.21617467107217 C 0.0 **** -0.24
31467 H 107.33820063859964 73.42811865794232 86.48926202285395 H 0.0 **** 0.06
31468 H 108.21713899615052 72.5457600482104 87.76115417330743 H 0.0 **** 0.06
31469 H 107.08246640229824 71.67902146016581 86.6977373415655 H 0.0 **** 0.06
31470 H 106.46502615956237 72.82052013016255 87.9164523876685 H 0.0 **** 0.06
31471 C 82.3701878182597 42.43602435274124 60.11539759714111 C 0.0 **** -0.24
31472 H 81.61372203397508 43.166916072424044 60.40194025854174 H 0.0 **** 0.06
31473 H 83.09834794879421 42.33294509937821 60.92055311346408 H 0.0 **** 0.06
31474 H 82.87462665651108 42.77028452786408 59.208440327093626 H 0.0 **** 0.06
31475 H 81.8920570094694 41.47331141901549 59.93143113812363 H 0.0 **** 0.06
31476 C 95.43774629979058 16.790511787957882 30.02276311888778 C 0.0 **** -0.24
31477 H 95.47349377953768 16.396567860925217 31.038546645266194 H 0.0 **** 0.06
31478 H 95.73165064654118 17.839857585038175 30.029796564576287 H 0.0 **** 0.06
31479 H 94.42407988149827 16.69812235454893 29.633157631585988 H 0.0 **** 0.06
31480 H 96.12312449272531 16.22457917921193 29.39145265501756 H 0.0 **** 0.06
31481 C 74.82589895579635 10.397305215553587 35.258719830654584 C 0.0 **** -0.24
31482 H 75.08439520046663 9.643095527366825 34.514803606406346 H 0.0 **** 0.06
31483 H 74.46538716665248 9.905666671525935 36.163218442647064 H 0.0 **** 0.06
31484 H 74.04588379699399 11.046278256541257 34.861945141693724 H 0.0 **** 0.06
31485 H 75.70816596392477 10.992125836370391 35.495762513067525 H 0.0 **** 0.06
31486 C 60.90319932769984 57.40608990860238 8.147489908355226 C 0.0 **** -0.24
31487 H 61.78876350087094 58.01559821160313 8.329815523467232 H 0.0 **** 0.06
31488 H 60.62196986106254 56.890741262653414 9.066617043871702 H 0.0 **** 0.06
31489 H 61.12149974328791 56.672686197972766 7.371795544394672 H 0.0 **** 0.06
31490 H 60.08273989210153 58.045715141014675 7.82279047783652 H 0.0 **** 0.06
31491 C 47.29479307444842 26.694944264716867 90.55434618562165 C 0.0 **** -0.24
31492 H 47.247229122456 27.709380384581266 90.94905727594158 H 0.0 **** 0.06
31493 H 48.28401954375842 26.515216858595096 90.13249555894782 H 0.0 **** 0.06
31494 H 46.54010488337002 26.57213654435671 89.77706638017838 H 0.0 **** 0.06
31495 H 47.10781874820909 25.983043271334395 91.35876552741897 H 0.0 **** 0.06
31496 C 67.69363892136236 9.174819487970282 84.52596196379345 C 0.0 **** -0.24
31497 H 68.38620140574434 9.580933715397393 85.26333318103893 H 0.0 **** 0.06
31498 H 67.85214460902628 8.100135009840855 84.433370875676 H 0.0 **** 0.06
31499 H 67.86856819007845 9.652598132332002 83.562690395131 H 0.0 **** 0.06
31500 H 66.66937035447692 9.3656490283945 84.84587107883958 H 0.0 **** 0.06
31501 C 44.0676879935113 2.0514400918720526 102.10833824175262 C 0.0 **** -0.24
31502 H 44.890272491357905 2.6565044393915116 102.4903274698832 H 0.0 **** 0.06
31503 H 44.444612030756446 1.3626952379142665 101.35182340911805 H 0.0 **** 0.06
31504 H 43.3145364409815 2.7022253668094436 101.66482375886011 H 0.0 **** 0.06
31505 H 43.62359940547043 1.485168399619397 102.92677916270901 H 0.0 **** 0.06
31506 C 40.545658362475365 37.1262152140008 39.8927621072379 C 0.0 **** -0.24
31507 H 40.551931450004645 37.52553668108952 38.878994464238076 H 0.0 **** 0.06
31508 H 40.51262460890939 36.03702377027311 39.85356164623181 H 0.0 **** 0.06
31509 H 39.66938211522677 37.49775241605251 40.42390889023443 H 0.0 **** 0.06
31510 H 41.449146922735 37.444549471088315 40.413243237251606 H 0.0 **** 0.06
31511 C 48.81702278211009 26.180278731287217 83.95908424132271 C 0.0 **** -0.24
31512 H 49.71017635271056 26.30963518146794 83.3479275798756 H 0.0 **** 0.06
31513 H 49.00912945217823 26.552506547246622 84.96592007546089 H 0.0 **** 0.06
31514 H 48.55995246992063 25.121685765800237 84.00646243545152 H 0.0 **** 0.06
31515 H 47.990265936577146 26.736084956716127 83.51673435448986 H 0.0 **** 0.06
31516 C 77.39882947268154 90.28209750302732 2.818275484254798 C 0.0 **** -0.24
31517 H 77.73940335499657 91.01649855378596 3.548157247759704 H 0.0 **** 0.06
31518 H 76.53424774410843 89.74995642736626 3.2152429656564863 H 0.0 **** 0.06
31519 H 78.20029341041999 89.5729381273444 2.6144315847278676 H 0.0 **** 0.06
31520 H 77.12002680681383 90.79101720992882 1.8955947880512412 H 0.0 **** 0.06
31521 C 8.097272780016596 50.89535898264967 87.95675792446964 C 0.0 **** -0.24
31522 H 9.154274820934347 50.65722980108981 87.83707062061589 H 0.0 **** 0.06
31523 H 7.692337924264621 51.237800134725696 87.0040870900061 H 0.0 **** 0.06
31524 H 7.983726762056165 51.68048965963376 88.70381076793404 H 0.0 **** 0.06
31525 H 7.5597552276751685 50.00355715397074 88.28050518617502 H 0.0 **** 0.06
31526 C 38.97839494351797 104.63983730076225 15.112480588501537 C 0.0 **** -0.24
31527 H 39.13994875714992 104.85672385167553 16.16832548478272 H 0.0 **** 0.06
31528 H 39.36438787064771 105.46233019843818 14.510073109670632 H 0.0 **** 0.06
31529 H 37.91077190241864 104.52311082384483 14.925406133281527 H 0.0 **** 0.06
31530 H 39.49723251412431 103.71866877082678 14.847241115975763 H 0.0 **** 0.06
31531 C 11.334223233834905 32.95990635137156 31.69594669657198 C 0.0 **** -0.24
31532 H 10.922485435951387 33.23508536792073 32.667378320012006 H 0.0 **** 0.06
31533 H 11.394671532498535 31.87394072532831 31.622403923210356 H 0.0 **** 0.06
31534 H 12.330365137864533 33.388294184532356 31.589767675359383 H 0.0 **** 0.06
31535 H 10.686938953137656 33.3424529351922 30.90648735157083 H 0.0 **** 0.06
31536 C 34.29654006033945 96.71320251590299 67.16137587322919 C 0.0 **** -0.24
31537 H 33.40894253812024 96.28586858951466 67.62676298525986 H 0.0 **** 0.06
31538 H 34.99257999715627 95.91337756074432 66.90518571703689 H 0.0 **** 0.06
31539 H 34.775164675530505 97.40210973296449 67.85717266306551 H 0.0 **** 0.06
31540 H 34.010410035112216 97.24902049883325 66.25747739597455 H 0.0 **** 0.06
31541 C 108.01438678160739 40.27120014202916 46.83523937110533 C 0.0 **** -0.24
31542 H 108.01056420950411 40.44616074652538 47.910913586771244 H 0.0 **** 0.06
31543 H 106.9870146982422 40.19577937642492 46.476410352206756 H 0.0 **** 0.06
31544 H 108.54356503551043 39.343006990644824 46.61957594889947 H 0.0 **** 0.06
31545 H 108.51440552071878 41.10061022048194 46.334718578944546 H 0.0 **** 0.06
31546 C 35.32975565189706 64.38132180303502 71.87707695923234 C 0.0 **** -0.24
31547 H 36.29607623587931 64.70113945472657 72.26620037271766 H 0.0 **** 0.06
31548 H 34.68761238618168 64.07753299853694 72.70481866749117 H 0.0 **** 0.06
31549 H 35.47143581020493 63.540142407931754 71.19861339005155 H 0.0 **** 0.06
31550 H 34.863499713239854 65.20768217242305 71.339289946377 H 0.0 **** 0.06
31551 C 13.367751223943458 6.5381028577940015 15.6018748518009 C 0.0 **** -0.24
31552 H 12.284413531675426 6.425314290633924 15.544794897790641 H 0.0 **** 0.06
31553 H 13.65460196460387 6.773596545151783 16.626619808492446 H 0.0 **** 0.06
31554 H 13.683186455982607 7.345552832929593 14.94125014341224 H 0.0 **** 0.06
31555 H 13.84661116096163 5.60859275484075 15.293951171205098 H 0.0 **** 0.06
31556 C 82.57573322003407 1.8442503210849281 11.78204252645331 C 0.0 **** -0.24
31557 H 82.54397006062243 0.7770354062564877 11.560973925013926 H 0.0 **** 0.06
31558 H 83.57282746066801 2.1146619225335144 12.12859334589676 H 0.0 **** 0.06
31559 H 81.84490493976045 2.0753496137776324 12.558070287508372 H 0.0 **** 0.06
31560 H 82.33829986939952 2.408138971752777 10.879475686790173 H 0.0 **** 0.06
31561 C 22.7859110596162 42.589200122679195 29.200513358041235 C 0.0 **** -0.24
31562 H 22.375570976380384 43.26710009236177 28.451609128961536 H 0.0 **** 0.06
31563 H 22.0522419077889 41.81620297873719 29.431684096998623 H 0.0 **** 0.06
31564 H 23.022448382925024 43.14928241122371 30.10543092812742 H 0.0 **** 0.06
31565 H 23.692604910969795 42.125560171662045 28.812070168876005 H 0.0 **** 0.06
31566 C 98.32977881144191 27.91646013953232 9.913271730236175 C 0.0 **** -0.24
31567 H 97.55949825564156 28.078418565245286 9.159424806509932 H 0.0 **** 0.06
31568 H 98.06094349852123 27.0563640441853 10.527667543090018 H 0.0 **** 0.06
31569 H 98.41253897992615 28.801841068840616 10.544210129763584 H 0.0 **** 0.06
31570 H 99.28502241335161 27.729117155050815 9.423721847064229 H 0.0 **** 0.06
31571 C 102.99355081198229 55.54504685204363 64.34418390079556 C 0.0 **** -0.24
31572 H 103.86171008644241 55.304589236879586 64.95797171462738 H 0.0 **** 0.06
31573 H 102.66901697007262 54.65284611080759 63.80826738832464 H 0.0 **** 0.06
31574 H 103.25846206467891 56.32364380010165 63.62972982862328 H 0.0 **** 0.06
31575 H 102.18452086438968 55.89897586313298 64.98404382101397 H 0.0 **** 0.06
31576 C 2.827999178125282 6.4367063870434436 21.882160123400382 C 0.0 **** -0.24
31577 H 2.674640886193501 7.48992639640403 21.645293602196375 H 0.0 **** 0.06
31578 H 3.894182439208109 6.241804816662096 21.997340372991488 H 0.0 **** 0.06
31579 H 2.431483434015064 5.821537295259759 21.07419531323106 H 0.0 **** 0.06
31580 H 2.311667523880587 6.194197973455829 22.810550729029075 H 0.0 **** 0.06
31581 C 62.354869509711364 42.97692638501485 63.68907479760759 C 0.0 **** -0.24
31582 H 62.70869075930372 42.9713210711317 62.65754242998233 H 0.0 **** 0.06
31583 H 63.02270515762143 42.372634997831874 64.30425883955479 H 0.0 **** 0.06
31584 H 61.34835005333167 42.56108282635834 63.72983704115535 H 0.0 **** 0.06
31585 H 62.341027711547866 43.99948009647644 64.06318849624432 H 0.0 **** 0.06
31586 C 93.4925935945488 73.03965956185559 21.768186576048606 C 0.0 **** -0.24
31587 H 92.46336581366961 73.35396778797214 21.593145412538036 H 0.0 **** 0.06
31588 H 93.49727011955946 72.05987438955103 22.245787884301535 H 0.0 **** 0.06
31589 H 93.98727054700908 73.76320511096156 22.416951914836147 H 0.0 **** 0.06
31590 H 94.0218821779755 72.98373779608026 20.816641387899267 H 0.0 **** 0.06
31591 C 1.7305390579422522 88.12734627126036 18.69163184835996 C 0.0 **** -0.24
31592 H 2.4941341720799812 87.68065483274393 19.32750217023957 H 0.0 **** 0.06
31593 H 1.7682527496538398 89.2123247146896 18.785691859246285 H 0.0 **** 0.06
31594 H 0.7475402777345863 87.76988456014482 18.998713921310056 H 0.0 **** 0.06
31595 H 1.9116629045685585 87.84579201870076 17.653547893481743 H 0.0 **** 0.06
31596 C 77.02144814613965 28.9869664685871 60.51930601414671 C 0.0 **** -0.24
31597 H 77.77527620737041 29.762422365041083 60.385413366771346 H 0.0 **** 0.06
31598 H 76.45500981334567 28.86874929428607 59.5952691066681 H 0.0 **** 0.06
31599 H 76.34664491129027 29.270965229888454 61.326568759851895 H 0.0 **** 0.06
31600 H 77.50998904501904 28.044294944878175 60.76867947009343 H 0.0 **** 0.06
31601 C 100.86731403428894 100.62503116881139 57.163513841203354 C 0.0 **** -0.24
31602 H 101.66224711516423 100.507721781923 57.89888020284201 H 0.0 **** 0.06
31603 H 100.00339101549702 101.0962569928823 57.63299348889913 H 0.0 **** 0.06
31604 H 100.58241931651548 99.64556380947779 56.77765166381212 H 0.0 **** 0.06
31605 H 101.22066013242363 101.24978515441518 56.34349321275528 H 0.0 **** 0.06
31606 C 10.811643677368295 27.271611255277065 12.746473667018904 C 0.0 **** -0.24
31607 H 10.201149698999401 26.590242541432815 13.339636946816114 H 0.0 **** 0.06
31608 H 11.866716017304327 27.050990891141765 12.912190098708862 H 0.0 **** 0.06
31609 H 10.60319427431314 28.299067856619757 13.046096231532985 H 0.0 **** 0.06
31610 H 10.574268881218742 27.144593822974883 11.690430286364688 H 0.0 **** 0.06
31611 C 3.4743688315837176 25.55668605451822 24.49918569090073 C 0.0 **** -0.24
31612 H 3.9155238419131138 26.193678364678775 23.73197779162794 H 0.0 **** 0.06
31613 H 2.5990669732500464 26.050192062619434 24.92208326947565 H 0.0 **** 0.06
31614 H 4.20629463814538 25.376052027027935 25.285913588347967 H 0.0 **** 0.06
31615 H 3.176765706204634 24.606788548329327 24.05394528298376 H 0.0 **** 0.06
31616 C 60.39469164011658 30.46432569385926 87.47435798355241 C 0.0 **** -0.24
31617 H 59.82547874591364 31.23610799598741 86.95683833022645 H 0.0 **** 0.06
31618 H 61.44043654272852 30.51919716934887 87.16982449741272 H 0.0 **** 0.06
31619 H 59.99206158279617 29.483683900717146 87.21806783397051 H 0.0 **** 0.06
31620 H 60.32065520186822 30.618696379991952 88.55028553799355 H 0.0 **** 0.06
31621 C 95.33960275950096 45.99805358169215 108.1612855976154 C 0.0 **** -0.24
31622 H 95.94506957750849 45.18586963278025 107.75928309054416 H 0.0 **** 0.06
31623 H 95.96091516768041 46.63785678079421 108.78882338502137 H 0.0 **** 0.06
31624 H 94.52638867502463 45.58283415848152 108.75699321967181 H 0.0 **** 0.06
31625 H 94.926065007604 46.58325628676664 107.3405443868869 H 0.0 **** 0.06
31626 C 91.88883660786198 76.31369492310284 18.11827445643621 C 0.0 **** -0.24
31627 H 91.25901463076082 75.8798349233191 17.341589421543866 H 0.0 **** 0.06
31628 H 91.9570971767869 75.6221357670423 18.95822940067196 H 0.0 **** 0.06
31629 H 91.45391808872478 77.25427511587696 18.456290204401775 H 0.0 **** 0.06
31630 H 92.88574492442433 76.49757551830356 17.716041111007872 H 0.0 **** 0.06
31631 C 32.94305538025853 88.90751837620269 34.95736213760361 C 0.0 **** -0.24
31632 H 33.425571188386044 88.14090552397062 34.35049219438835 H 0.0 **** 0.06
31633 H 32.35502427320637 89.56238026824008 34.31448098697996 H 0.0 **** 0.06
31634 H 33.703411421228736 89.49182674211988 35.474364290110074 H 0.0 **** 0.06
31635 H 32.28916252522035 88.43325789398847 35.68901504590022 H 0.0 **** 0.06
31636 C 64.37034744211779 9.61449272854489 2.2215373499695232 C 0.0 **** -0.24
31637 H 64.94397449483559 8.984926349065248 1.5406870845068426 H 0.0 **** 0.06
31638 H 64.41306256771506 9.194881716919443 3.2265676352951544 H 0.0 **** 0.06
31639 H 63.332947362050376 9.658107174237102 1.8876469626697912 H 0.0 **** 0.06
31640 H 64.79215194512446 10.61932791167756 2.228099147311653 H 0.0 **** 0.06
31641 C 100.29528824183365 36.955291569310255 13.44438992715894 C 0.0 **** -0.24
31642 H 99.84764491410345 37.8360710370942 13.903161951793258 H 0.0 **** 0.06
31643 H 101.18651954610198 37.24851457565476 12.887937787418238 H 0.0 **** 0.06
31644 H 99.577989203008 36.49599333789885 12.764463408686822 H 0.0 **** 0.06
31645 H 100.56935849844172 36.24166568222958 14.220350861266777 H 0.0 **** 0.06
31646 C 2.755944635231046 102.44586750021887 19.29894557866291 C 0.0 **** -0.24
31647 H 3.589497484148197 102.6895238981005 18.639950822595864 H 0.0 **** 0.06
31648 H 2.9755851908883244 101.52266431407133 19.836221877873925 H 0.0 **** 0.06
31649 H 1.850277479598745 102.31566951922667 18.706145125913622 H 0.0 **** 0.06
31650 H 2.6091061537883746 103.25679520200401 20.013107073109552 H 0.0 **** 0.06
31651 C 41.614245361793735 17.31889954748118 40.95785414722947 C 0.0 **** -0.24
31652 H 42.70175506518581 17.246060581236122 40.94462553814185 H 0.0 **** 0.06
31653 H 41.31654187671148 18.34107910242409 40.719102029758375 H 0.0 **** 0.06
31654 H 41.24452551473399 17.053937334794426 41.94792539523348 H 0.0 **** 0.06
31655 H 41.19567338395177 16.636542817021535 40.218144981972614 H 0.0 **** 0.06
31656 C 85.42281795730858 108.10497587417066 2.6506635365704625 C 0.0 **** -0.24
31657 H 84.69044591755323 107.53909504498577 3.2253964194710107 H 0.0 **** 0.06
31658 H 85.05645184870264 109.12053177902618 2.4954152835623375 H 0.0 **** 0.06
31659 H 85.57741217869199 107.62229468995852 1.6849190383626649 H 0.0 **** 0.06
31660 H 86.36630713598669 108.13770424582228 3.1953440646683333 H 0.0 **** 0.06
31661 C 64.4061202019787 38.23038043361856 99.89938399514747 C 0.0 **** -0.24
31662 H 65.3348722253744 38.24687638907153 99.32718513730896 H 0.0 **** 0.06
31663 H 64.50353999242253 37.528282419624134 100.72824206060227 H 0.0 **** 0.06
31664 H 63.586934861660325 37.91832658839252 99.25243223184333 H 0.0 **** 0.06
31665 H 64.20280974092611 39.227844802770846 100.28900502982188 H 0.0 **** 0.06
31666 C 86.16863975928123 63.52963091132084 72.02124827450831 C 0.0 **** -0.24
31667 H 86.26604093698907 64.20217854854069 71.1682602243788 H 0.0 **** 0.06
31668 H 85.28459300589776 63.80245109883863 72.59855876604678 H 0.0 **** 0.06
31669 H 87.05397944251987 63.61132770899533 72.65128963003698 H 0.0 **** 0.06
31670 H 86.06889311924004 62.5048476467002 71.66449948772436 H 0.0 **** 0.06
31671 C 36.08817881264696 6.386413416843823 72.51786490741881 C 0.0 **** -0.24
31672 H 35.53474445684199 6.041626522319731 71.64347634688386 H 0.0 **** 0.06
31673 H 35.77661388039468 5.816277719737428 73.39290572326806 H 0.0 **** 0.06
31674 H 35.885271976708765 7.4455633778492825 72.68137368013464 H 0.0 **** 0.06
31675 H 37.155907327581644 6.242233781808778 72.35070944749384 H 0.0 **** 0.06
31676 C 103.84093816641503 37.957946670771975 58.69102262815895 C 0.0 **** -0.24
31677 H 102.90309355616053 38.27703555552728 59.1449153452358 H 0.0 **** 0.06
31678 H 104.31635870290333 38.80990025868044 58.20403771512193 H 0.0 **** 0.06
31679 H 103.64184603445835 37.1815623164095 57.95293965534137 H 0.0 **** 0.06
31680 H 104.50284116030794 37.56440272364938 59.46297825615366 H 0.0 **** 0.06
31681 C 103.33581402045144 64.92771387589704 34.492670940636934 C 0.0 **** -0.24
31682 H 103.11376094370729 65.88127209515008 34.012419889211856 H 0.0 **** 0.06
31683 H 102.47440419130139 64.26569634777121 34.3990824311069 H 0.0 **** 0.06
31684 H 103.55237112858372 65.09593662301177 35.54823669160851 H 0.0 **** 0.06
31685 H 104.20056350103826 64.47162040677568 34.01188419954157 H 0.0 **** 0.06
31686 C 53.26036222513994 63.78858366525739 88.72771589868722 C 0.0 **** -0.24
31687 H 52.95909329463012 63.05282983880102 87.98281849264532 H 0.0 **** 0.06
31688 H 54.34223843887116 63.922650918292476 88.68969247141536 H 0.0 **** 0.06
31689 H 52.97201862033796 63.44034208741775 89.71951912092425 H 0.0 **** 0.06
31690 H 52.769235460031325 64.73894756803799 88.51955298723408 H 0.0 **** 0.06
31691 C 46.93850924944315 39.105787679739194 94.3901064938272 C 0.0 **** -0.24
31692 H 47.80085871213421 39.75728067352162 94.53065945115668 H 0.0 **** 0.06
31693 H 46.218682158567795 39.278108816039605 95.19119158412852 H 0.0 **** 0.06
31694 H 47.262690090500485 38.06564993993868 94.41146287074861 H 0.0 **** 0.06
31695 H 46.471527361220396 39.32184082220266 93.42931421260482 H 0.0 **** 0.06
31696 C 92.31013725927838 59.53158813174889 49.065125520028474 C 0.0 **** -0.24
31697 H 91.62463381639476 60.275052113048645 48.65838088114965 H 0.0 **** 0.06
31698 H 93.15592801412811 60.03404260503646 49.534476524212046 H 0.0 **** 0.06
31699 H 92.66992128915936 58.890232368773354 48.259822993335106 H 0.0 **** 0.06
31700 H 91.78983695685469 58.92493283469901 49.80706747503606 H 0.0 **** 0.06
31701 C 92.10570065925134 81.72167118737721 101.14051898341141 C 0.0 **** -0.24
31702 H 91.07225076436953 81.52449716537615 100.85735731169079 H 0.0 **** 0.06
31703 H 92.22217619124402 82.7810515413104 101.37541198973705 H 0.0 **** 0.06
31704 H 92.76463501505961 81.45824857161577 100.31341204762433 H 0.0 **** 0.06
31705 H 92.3639583440465 81.125314596372 102.01564563254372 H 0.0 **** 0.06
31706 C 104.37145721777262 98.26855290923767 18.192130113281166 C 0.0 **** -0.24
31707 H 103.35686084885675 97.88285809115098 18.29140032417274 H 0.0 **** 0.06
31708 H 104.93261404744413 98.05437181758607 19.102468734022693 H 0.0 **** 0.06
31709 H 104.3363795349466 99.3462380600788 18.031530763107867 H 0.0 **** 0.06
31710 H 104.85997443984306 97.79074366813482 17.34312063182125 H 0.0 **** 0.06
31711 C 12.651063194959818 84.99507269183158 10.004197987526313 C 0.0 **** -0.24
31712 H 13.03249166199356 85.71943655446344 9.284993461785527 H 0.0 **** 0.06
31713 H 11.72158650689255 85.36643195117503 10.43486399593484 H 0.0 **** 0.06
31714 H 13.38606145474364 84.84675976257262 10.795111181013505 H 0.0 **** 0.06
31715 H 12.463653936133653 84.04634498973655 9.499362888169676 H 0.0 **** 0.06
31716 C 100.58566013590728 14.93871006854846 56.981169117240455 C 0.0 **** -0.24
31717 H 100.04754015947614 15.290847937685797 57.86092229145441 H 0.0 **** 0.06
31718 H 100.14800388880417 14.0000644259448 56.63925787194817 H 0.0 **** 0.06
31719 H 101.63393915699801 14.779266489543517 57.23581937676449 H 0.0 **** 0.06
31720 H 100.51381121268044 15.683414618906326 56.18854264572225 H 0.0 **** 0.06
31721 C 71.47999927783202 11.769657049948947 40.43862745988514 C 0.0 **** -0.24
31722 H 70.64672704335163 12.410685991414368 40.72873469557277 H 0.0 **** 0.06
31723 H 71.21106815377959 10.72626131579024 40.60724929018005 H 0.0 **** 0.06
31724 H 72.35644029568198 12.020929887428466 41.03587277052071 H 0.0 **** 0.06
31725 H 71.70357768052484 11.92112295192149 39.38234924417253 H 0.0 **** 0.06
31726 C 44.02439947085582 59.26122416474317 107.65562032128143 C 0.0 **** -0.24
31727 H 44.281059409932695 59.80613037387178 108.56426314353209 H 0.0 **** 0.06
31728 H 44.245814212123065 58.20310607658081 107.7933645148986 H 0.0 **** 0.06
31729 H 44.608752645926515 59.6502998956376 106.82195894354332 H 0.0 **** 0.06
31730 H 42.96202185961559 59.386785936964884 107.44488600652521 H 0.0 **** 0.06
31731 C 86.71607297500134 102.3582262792101 36.683522126105856 C 0.0 **** -0.24
31732 H 86.26698792609724 103.13043389827565 37.30930719214908 H 0.0 **** 0.06
31733 H 87.67274304912024 102.71402741717876 36.30019613564809 H 0.0 **** 0.06
31734 H 86.05130430242599 102.13379004347128 35.85001399897857 H 0.0 **** 0.06
31735 H 86.8743254412044 101.45799425465506 37.27673902222244 H 0.0 **** 0.06
31736 C 107.1434927609875 73.65860723996292 1.383644057958774 C 0.0 **** -0.24
31737 H 107.68300811763595 73.93700282628649 0.4778101929501073 H 0.0 **** 0.06
31738 H 106.82671132610318 72.61795922886631 1.3116223817803903 H 0.0 **** 0.06
31739 H 106.26755473096665 74.29843214731594 1.4954857801288375 H 0.0 **** 0.06
31740 H 107.79547838378653 73.781330285156 2.2475535353203986 H 0.0 **** 0.06
31741 C 45.37284389257738 32.226845880878216 97.36035363882131 C 0.0 **** -0.24
31742 H 45.15644453149328 32.93071861336085 96.55645353492183 H 0.0 **** 0.06
31743 H 44.8680862879707 32.54997403191936 98.27063700532288 H 0.0 **** 0.06
31744 H 46.4487595047616 32.192291519243554 97.53286299203941 H 0.0 **** 0.06
31745 H 45.017981759978056 31.235635350740864 97.07960041483473 H 0.0 **** 0.06
31746 C 20.492332702231067 61.59448046828277 95.39673634017268 C 0.0 **** -0.24
31747 H 19.6860462134033 61.326292092575045 94.71503414057524 H 0.0 **** 0.06
31748 H 20.83134931831944 62.60717222919058 95.17726647536412 H 0.0 **** 0.06
31749 H 21.32152025686503 60.89876093447674 95.27073967091242 H 0.0 **** 0.06
31750 H 20.130852151012903 61.546578653950235 96.42372907116783 H 0.0 **** 0.06
31751 C 11.992302606345245 55.232996006330666 20.277708070940207 C 0.0 **** -0.24
31752 H 11.305571624981148 54.59664624717169 20.837022356048863 H 0.0 **** 0.06
31753 H 11.5991831518296 55.39581645495923 19.273739194864277 H 0.0 **** 0.06
31754 H 12.966144144070675 54.74579073769718 20.2119536343738 H 0.0 **** 0.06
31755 H 12.097831041219248 56.18965079465164 20.78776311542174 H 0.0 **** 0.06
31756 C 5.151893827763985 48.97221326968594 9.076061111116502 C 0.0 **** -0.24
31757 H 4.340970724797074 49.40125719359344 9.664307552892666 H 0.0 **** 0.06
31758 H 5.479194670541915 48.038557920346136 9.534604194931518 H 0.0 **** 0.06
31759 H 5.986197458412931 49.67297975174989 9.041223414715574 H 0.0 **** 0.06
31760 H 4.799422507714297 48.77582178871097 8.06279002769449 H 0.0 **** 0.06
31761 C 13.144615841567713 50.779808455148085 21.29424357382021 C 0.0 **** -0.24
31762 H 13.069048117893217 51.82870734875809 21.5847596702354 H 0.0 **** 0.06
31763 H 13.694525937218671 50.7014899613578 20.35613377882669 H 0.0 **** 0.06
31764 H 12.144587138703486 50.36676360794256 21.165661436236945 H 0.0 **** 0.06
31765 H 13.669533520553102 50.225469864825754 22.07150991487117 H 0.0 **** 0.06
31766 C 107.84610736054415 45.63157423532142 10.7379665335921 C 0.0 **** -0.24
31767 H 107.57008956110269 46.58380002951147 11.189609108052082 H 0.0 **** 0.06
31768 H 107.27074553549417 44.82976760561859 11.201411020624533 H 0.0 **** 0.06
31769 H 108.91021214102103 45.45158178244507 10.891226448367604 H 0.0 **** 0.06
31770 H 107.63240023989911 45.661324345906735 9.669552260488132 H 0.0 **** 0.06
31771 C 52.70460366288893 21.025425161683273 63.992017289082526 C 0.0 **** -0.24
31772 H 52.66490692649687 20.50196670017546 64.94803211281112 H 0.0 **** 0.06
31773 H 51.767949787838106 21.558611700344727 63.83082029338118 H 0.0 **** 0.06
31774 H 52.85505042727118 20.304221625610893 63.189558551872665 H 0.0 **** 0.06
31775 H 53.53130153114571 21.736370031398522 64.0025022185456 H 0.0 **** 0.06
31776 C 73.85255797089741 11.314780005456356 70.26359383080833 C 0.0 **** -0.24
31777 H 73.20540815028875 12.068161164970022 70.71282295495777 H 0.0 **** 0.06
31778 H 74.83923800181009 11.74259685049725 70.08564683493921 H 0.0 **** 0.06
31779 H 73.42235018111319 10.98484340428405 69.31750767965684 H 0.0 **** 0.06
31780 H 73.94086800172244 10.463297092797973 70.93780968339496 H 0.0 **** 0.06
31781 C 98.4064205992652 98.73130710587003 74.85108739327534 C 0.0 **** -0.24
31782 H 98.21037191759885 98.0855483845284 75.70680255091645 H 0.0 **** 0.06
31783 H 99.47941737786005 98.9166287448766 74.77518725306723 H 0.0 **** 0.06
31784 H 97.88261300114178 99.67836359427449 74.98154612822839 H 0.0 **** 0.06
31785 H 98.05673846920132 98.2446179872887 73.94062543787742 H 0.0 **** 0.06
31786 C 93.55331247445659 76.15273096292506 56.711167552041196 C 0.0 **** -0.24
31787 H 93.33452963081922 77.11565748291864 57.17111904484554 H 0.0 **** 0.06
31788 H 93.83645651469394 76.30390507162673 55.6690400397831 H 0.0 **** 0.06
31789 H 92.66755209694958 75.5183357669527 56.75822293216992 H 0.0 **** 0.06
31790 H 94.37308018831563 75.67227507336412 57.24388494861462 H 0.0 **** 0.06
31791 C 87.32148489798753 49.30305136349193 40.842365087037436 C 0.0 **** -0.24
31792 H 86.96324024349263 50.137266193959476 40.239158449185794 H 0.0 **** 0.06
31793 H 87.40942733534561 49.61838918033078 41.88288281338319 H 0.0 **** 0.06
31794 H 88.29686246903367 48.98213130522038 40.476668802456516 H 0.0 **** 0.06
31795 H 86.61642712919996 48.47397401068224 40.77209265976356 H 0.0 **** 0.06
31796 C 102.62688872196567 66.2824782505563 10.44856930369916 C 0.0 **** -0.24
31797 H 102.70688970666706 65.35866557234922 11.021710518566564 H 0.0 **** 0.06
31798 H 102.9942778976316 66.11600194274996 9.436595178343154 H 0.0 **** 0.06
31799 H 103.22188407030491 67.06012676921142 10.928562253763033 H 0.0 **** 0.06
31800 H 101.58315977900872 66.59653408395806 10.409687941217157 H 0.0 **** 0.06
31801 C 62.2207718023152 31.76734482568901 103.9861001460609 C 0.0 **** -0.24
31802 H 63.22797010716613 31.55669706472372 104.34423965577201 H 0.0 **** 0.06
31803 H 62.275051143659766 32.230150288543314 103.0011607178242 H 0.0 **** 0.06
31804 H 61.7224285049553 32.44460498554642 104.68039730535533 H 0.0 **** 0.06
31805 H 61.65713895309625 30.83577966570931 103.92063786317394 H 0.0 **** 0.06
31806 C 100.9503778949196 62.37220799047199 22.287241392217194 C 0.0 **** -0.24
31807 H 101.68334120504076 63.08221510860139 21.90260831994769 H 0.0 **** 0.06
31808 H 101.07194671560856 62.27423205722482 23.366741591738197 H 0.0 **** 0.06
31809 H 101.10085435665152 61.402029416927405 21.81430671787341 H 0.0 **** 0.06
31810 H 99.94608239036272 62.73269511532931 22.06544098983784 H 0.0 **** 0.06
31811 C 59.34199064646549 86.38222452363424 57.795001554470005 C 0.0 **** -0.24
31812 H 60.05418816386748 86.36243089016143 56.96982351726636 H 0.0 **** 0.06
31813 H 59.720198912568605 85.77210903321718 58.61545842442372 H 0.0 **** 0.06
31814 H 58.384437961417234 85.98661130331467 57.45900332549143 H 0.0 **** 0.06
31815 H 59.210872527240554 87.40941641665118 58.13617122963776 H 0.0 **** 0.06
31816 C 4.3776163941146535 84.5323603527702 74.35482592295409 C 0.0 **** -0.24
31817 H 4.337005769953976 84.39157737728983 73.27509736737147 H 0.0 **** 0.06
31818 H 5.303871801026304 84.1079511095626 74.74261916204625 H 0.0 **** 0.06
31819 H 3.5269946377158874 84.0333423301321 74.81793222986701 H 0.0 **** 0.06
31820 H 4.342568970561729 85.59754620550919 74.58387319085057 H 0.0 **** 0.06
31821 C 3.8449628063760883 34.32550084136864 93.75943840425097 C 0.0 **** -0.24
31822 H 4.838015638032658 34.100563921244884 94.14865213158151 H 0.0 **** 0.06
31823 H 3.2698183784092123 33.40326965509371 93.67842990131135 H 0.0 **** 0.06
31824 H 3.9373974241470506 34.78432865572711 92.77465376816997 H 0.0 **** 0.06
31825 H 3.3370130620869958 35.01372047482823 94.43550991519606 H 0.0 **** 0.06
31826 C 94.35462746565882 102.59679552116432 6.22447236153053 C 0.0 **** -0.24
31827 H 95.37078584564456 102.78076234951209 6.574191172891062 H 0.0 **** 0.06
31828 H 93.7266128710661 102.31073212278142 7.068698816072043 H 0.0 **** 0.06
31829 H 94.36374678602263 101.79313661131789 5.488810747266015 H 0.0 **** 0.06
31830 H 93.95886216482413 103.50452510019068 5.767552494829417 H 0.0 **** 0.06
31831 C 71.52526248787643 78.79367344764168 76.51578057201874 C 0.0 **** -0.24
31832 H 70.6516696837283 78.75086703360105 75.86525532990765 H 0.0 **** 0.06
31833 H 71.49369878033548 77.96259650429874 77.22105198006808 H 0.0 **** 0.06
31834 H 71.52321850893904 79.73615150026785 77.06477864429162 H 0.0 **** 0.06
31835 H 72.43051851875069 78.725607675759 75.91342903392977 H 0.0 **** 0.06
31836 C 79.15620403110874 55.51641267908767 19.724168480761605 C 0.0 **** -0.24
31837 H 79.11566231007995 55.97922033994285 20.709584251193114 H 0.0 **** 0.06
31838 H 78.15293493798028 55.211335190816484 19.424624196958558 H 0.0 **** 0.06
31839 H 79.80635261332914 54.641890217454296 19.76062645127827 H 0.0 **** 0.06
31840 H 79.55008383280061 56.232314139264865 19.00223794324343 H 0.0 **** 0.06
31841 C 97.26150970072092 88.30846770948679 94.61373358219045 C 0.0 **** -0.24
31842 H 97.54769424207421 87.43010580010133 94.03503621902418 H 0.0 **** 0.06
31843 H 97.7006085970241 89.19855150887184 94.16166509391863 H 0.0 **** 0.06
31844 H 97.62349055810849 88.2042442641972 95.6363870798931 H 0.0 **** 0.06
31845 H 96.17549350491882 88.40158863087493 94.61983125699452 H 0.0 **** 0.06
31846 C 92.42150320938633 36.19384280821333 13.153778065648936 C 0.0 **** -0.24
31847 H 91.46889606756834 36.69931952896344 12.995737648009538 H 0.0 **** 0.06
31848 H 92.40794922285622 35.68661371738881 14.11835247471501 H 0.0 **** 0.06
31849 H 93.22851477637745 36.927688012419566 13.14064403320927 H 0.0 **** 0.06
31850 H 92.5814282878659 35.464065004814074 12.360576860725047 H 0.0 **** 0.06
31851 C 57.911161408722734 3.5609228071600683 76.97823748342324 C 0.0 **** -0.24
31852 H 58.24694599793406 4.5914738466348695 77.09021109409497 H 0.0 **** 0.06
31853 H 58.47461732798914 3.080431495306428 76.17743634354537 H 0.0 **** 0.06
31854 H 56.84916793586697 3.5485114416495804 76.73245567096558 H 0.0 **** 0.06
31855 H 58.07460274842842 3.0220399683993975 77.91084619916302 H 0.0 **** 0.06
31856 C 60.696095069724606 23.404896776393997 44.988928222635046 C 0.0 **** -0.24
31857 H 60.26215845476872 23.08798729693899 44.039822153572224 H 0.0 **** 0.06
31858 H 60.0223110535357 24.10662417224148 45.4794519948783 H 0.0 **** 0.06
31859 H 61.655658887642915 23.887559133596 44.806277897444645 H 0.0 **** 0.06
31860 H 60.84334721621616 22.534167185637358 45.62937083791304 H 0.0 **** 0.06
31861 C 77.2785183003335 35.67138830627109 43.79670094628099 C 0.0 **** -0.24
31862 H 76.61326740700324 36.256588340640505 44.4312858601192 H 0.0 **** 0.06
31863 H 77.72852993661058 34.870661718280424 44.383371475292265 H 0.0 **** 0.06
31864 H 78.06284491220308 36.31581385918288 43.39916936905355 H 0.0 **** 0.06
31865 H 76.70924665765426 35.24118947352586 42.97184720473099 H 0.0 **** 0.06
31866 C 36.231649353422256 57.030164457954925 45.52499280508039 C 0.0 **** -0.24
31867 H 36.13607382161638 56.23353352261455 44.78714570882937 H 0.0 **** 0.06
31868 H 37.079948581139064 57.66372546730926 45.26672605982009 H 0.0 **** 0.06
31869 H 36.39069977965235 56.593503982886574 46.51079118110897 H 0.0 **** 0.06
31870 H 35.3206633737251 57.62788126866664 45.53473859245054 H 0.0 **** 0.06
31871 C 52.936213146402054 73.57968131055534 73.72155004859303 C 0.0 **** -0.24
31872 H 53.607632322873 73.03716271039636 74.38784560591353 H 0.0 **** 0.06
31873 H 52.415502308978944 72.87168944344643 73.07599551621018 H 0.0 **** 0.06
31874 H 53.513312159285846 74.27296653911206 73.11027503111973 H 0.0 **** 0.06
31875 H 52.20822054586074 74.13547060540942 74.31378815260501 H 0.0 **** 0.06
31876 C 79.51567358649754 106.79280826473561 108.32347405748514 C 0.0 **** -0.24
31877 H 78.89422694227346 107.03718038801138 107.46207740789133 H 0.0 **** 0.06
31878 H 80.07132238833861 105.87623797797997 108.12135958305218 H 0.0 **** 0.06
31879 H 78.88338397327774 106.65028670668025 109.19898661628905 H 0.0 **** 0.06
31880 H 80.21486548972308 107.60831723229975 108.50879722889181 H 0.0 **** 0.06
31881 C 8.77496361382292 52.33690651788555 21.5461199566617 C 0.0 **** -0.24
31882 H 7.9337159929004315 51.85557187510602 21.045977641257764 H 0.0 **** 0.06
31883 H 9.535377183042215 51.5901496269143 21.775205585562958 H 0.0 **** 0.06
31884 H 8.430742832653735 52.80254627663754 22.469321184863873 H 0.0 **** 0.06
31885 H 9.198451546028167 53.0980944572035 20.89037702866318 H 0.0 **** 0.06
31886 C 91.47071040368228 98.6974941167345 25.10655948386529 C 0.0 **** -0.24
31887 H 92.22611015862068 98.414130351541 25.839529506058742 H 0.0 **** 0.06
31888 H 91.15048309801543 99.72278524869483 25.29305466564469 H 0.0 **** 0.06
31889 H 90.61534699517813 98.02826540383089 25.19118313195038 H 0.0 **** 0.06
31890 H 91.8920372157339 98.62473177828498 24.104395737097697 H 0.0 **** 0.06
31891 C 17.59395655162524 34.66511567991256 4.362179915062301 C 0.0 **** -0.24
31892 H 17.53941696983523 35.50567327371695 5.055001175363699 H 0.0 **** 0.06
31893 H 16.885415336275088 34.81859698145493 3.548288832195423 H 0.0 **** 0.06
31894 H 17.347839660917998 33.743480867939155 4.890085816582481 H 0.0 **** 0.06
31895 H 18.60323488127139 34.59368832767103 3.9573537467845483 H 0.0 **** 0.06
31896 C 35.262972084907574 54.61919782779987 56.35273573776354 C 0.0 **** -0.24
31897 H 35.58231088893598 55.632235641588125 56.1096062632551 H 0.0 **** 0.06
31898 H 35.711090012358596 53.918045567144404 55.64800547611294 H 0.0 **** 0.06
31899 H 34.17727265963114 54.55498250390339 56.28863458612177 H 0.0 **** 0.06
31900 H 35.58204597986821 54.37074789363345 57.36553404059845 H 0.0 **** 0.06
31901 C 8.335891273393653 66.09613272433269 39.92845177816172 C 0.0 **** -0.24
31902 H 8.373540410269346 65.17547360383209 39.347261511754844 H 0.0 **** 0.06
31903 H 8.078136023804179 66.92865202381049 39.273813932198564 H 0.0 **** 0.06
31904 H 9.309738393417009 66.27981166993429 40.38228841636188 H 0.0 **** 0.06
31905 H 7.582737812937449 66.00153477341368 40.7113202243547 H 0.0 **** 0.06
31906 C 97.34376963814321 91.70924396095118 64.22317979891136 C 0.0 **** -0.24
31907 H 98.17671679796543 92.4086713423929 64.15967249721518 H 0.0 **** 0.06
31908 H 97.01831951958386 91.62576092509563 65.26054892894024 H 0.0 **** 0.06
31909 H 97.6631394608816 90.73056409765162 63.863099845947545 H 0.0 **** 0.06
31910 H 96.5185435749852 92.07057666724839 63.61055558929766 H 0.0 **** 0.06
31911 C 28.34931998496063 84.97731280696196 77.02937615097693 C 0.0 **** -0.24
31912 H 28.855437097977358 84.02081123691407 77.16108830824805 H 0.0 **** 0.06
31913 H 27.587554717934665 85.0936573121834 77.80059241239954 H 0.0 **** 0.06
31914 H 27.88070307003943 85.00802396104751 76.046465268003 H 0.0 **** 0.06
31915 H 29.07602702997599 85.78646718371022 77.11107681392167 H 0.0 **** 0.06
31916 C 6.760661526851436 51.473906665742504 46.887564784693666 C 0.0 **** -0.24
31917 H 7.773483835228916 51.55354116615547 46.49033906509197 H 0.0 **** 0.06
31918 H 6.049193509356172 51.442342855799154 46.06193176301156 H 0.0 **** 0.06
31919 H 6.549576641934976 52.337432736252424 47.517087367664885 H 0.0 **** 0.06
31920 H 6.672765758469865 50.56242284995915 47.47858715109396 H 0.0 **** 0.06
31921 C 93.25227754116047 90.4775093894985 78.06459198066455 C 0.0 **** -0.24
31922 H 94.10466279739146 90.483903589063 77.3841366715279 H 0.0 **** 0.06
31923 H 93.01644861459006 89.44925645506322 78.33972923583346 H 0.0 **** 0.06
31924 H 92.39099550731785 90.92954309247705 77.571998144996 H 0.0 **** 0.06
31925 H 93.49916213811436 91.04690924145203 78.960464544447 H 0.0 **** 0.06
31926 C 58.71715723537779 2.419004654655623 43.344226103586436 C 0.0 **** -0.24
31927 H 58.15213076333382 2.806168911861022 44.1926887330562 H 0.0 **** 0.06
31928 H 59.752478359444765 2.752810011850869 43.415296702278496 H 0.0 **** 0.06
31929 H 58.278936780110165 2.7902502969670593 42.41753500377686 H 0.0 **** 0.06
31930 H 58.68396168553444 1.3295690960732713 43.35151161330653 H 0.0 **** 0.06
31931 C 45.724941983997496 17.1319192700923 88.07003992709019 C 0.0 **** -0.24
31932 H 45.23225765287788 16.194357931247072 87.80989993598988 H 0.0 **** 0.06
31933 H 45.28262319771932 17.94545077406518 87.49386329281555 H 0.0 **** 0.06
31934 H 46.78744627303962 17.05885962356851 87.840852838412 H 0.0 **** 0.06
31935 H 45.59428981111 17.327179297539555 89.1346921817673 H 0.0 **** 0.06
31936 C 97.45901488604379 67.48423479683056 3.2073132510597304 C 0.0 **** -0.24
31937 H 96.61719607815601 67.18059568381886 3.8296750842373797 H 0.0 **** 0.06
31938 H 97.28133067101703 68.4895300523003 2.8224317856019496 H 0.0 **** 0.06
31939 H 97.56356493191447 66.78969577572173 2.373679814113572 H 0.0 **** 0.06
31940 H 98.37167822533063 67.47904209804257 3.8020328971951898 H 0.0 **** 0.06
31941 C 19.91293284019872 38.61727358840008 32.94780340155444 C 0.0 **** -0.24
31942 H 19.6991531249204 38.28686751661644 33.964634734539345 H 0.0 **** 0.06
31943 H 20.521526088368887 39.52123473819209 32.981275606421946 H 0.0 **** 0.06
31944 H 18.976657388788396 38.82728135865945 32.43028055107732 H 0.0 **** 0.06
31945 H 20.453094882820977 37.8334529018058 32.41852193347779 H 0.0 **** 0.06
31946 C 60.78125684306406 63.3056509976326 95.91888069020843 C 0.0 **** -0.24
31947 H 61.23224683982613 63.437432452656736 96.90227863649261 H 0.0 **** 0.06
31948 H 61.266672372614835 63.97092964462425 95.20471757416982 H 0.0 **** 0.06
31949 H 59.71890340877053 63.54235979007227 95.97234059020104 H 0.0 **** 0.06
31950 H 60.90761633061089 62.27174298544736 95.59708668082806 H 0.0 **** 0.06
31951 C 103.76085232815598 79.0211644833339 11.862868897333101 C 0.0 **** -0.24
31952 H 104.16857786847032 78.24106161828664 11.219874127520796 H 0.0 **** 0.06
31953 H 103.12794328311003 79.68483935542835 11.273600981423755 H 0.0 **** 0.06
31954 H 104.57873767413494 79.59329537917303 12.302162328866643 H 0.0 **** 0.06
31955 H 103.16950844182179 78.56424846397624 12.656665499735226 H 0.0 **** 0.06
31956 C 50.883390283409426 0.8459558287403013 44.70608849987991 C 0.0 **** -0.24
31957 H 50.08772601695796 0.13492796024951303 44.48131603428709 H 0.0 **** 0.06
31958 H 51.201404615038854 0.7210008374600818 45.74134210064767 H 0.0 **** 0.06
31959 H 50.51561197651171 1.8614013124737596 44.55759450459243 H 0.0 **** 0.06
31960 H 51.72908395483623 0.6654069286730362 44.04192194526098 H 0.0 **** 0.06
31961 C 37.89479718913822 83.18314863970419 42.56858897534099 C 0.0 **** -0.24
31962 H 37.11541155683449 83.00707149326658 43.30993352056947 H 0.0 **** 0.06
31963 H 38.089287063561414 82.26116580001793 42.0205440850159 H 0.0 **** 0.06
31964 H 38.806427218837 83.50833768037661 43.070381427850435 H 0.0 **** 0.06
31965 H 37.5676503813859 83.95659975670219 41.87419919593282 H 0.0 **** 0.06
31966 C 81.47782821690859 100.3582561430034 41.246971653981106 C 0.0 **** -0.24
31967 H 82.37367794349609 99.80270804665233 40.96751056253896 H 0.0 **** 0.06
31968 H 80.8042092582756 99.70647716198594 41.80305933358356 H 0.0 **** 0.06
31969 H 80.97773798556592 100.71594450598866 40.34654859061728 H 0.0 **** 0.06
31970 H 81.75779090925077 101.20812261708902 41.86864092458624 H 0.0 **** 0.06
31971 C 67.09010248467015 107.56257202629286 103.54003936155561 C 0.0 **** -0.24
31972 H 67.40334571990157 107.81125761207129 102.52553107062698 H 0.0 **** 0.06
31973 H 66.1351981753946 108.04284992004078 103.75338360073007 H 0.0 **** 0.06
31974 H 67.84058715687475 107.91309540069932 104.24761756757907 H 0.0 **** 0.06
31975 H 66.98080230699117 106.48157723716598 103.63107580552706 H 0.0 **** 0.06
31976 C 97.9597101387569 39.32553507482804 108.98888902155923 C 0.0 **** -0.24
31977 H 96.98069940141293 39.374747332894835 109.46625054663434 H 0.0 **** 0.06
31978 H 97.99252234993443 38.47006321607408 108.31428831323262 H 0.0 **** 0.06
31979 H 98.73004413112707 39.21639470601685 109.75223021600138 H 0.0 **** 0.06
31980 H 98.13415894202052 40.24182237891363 108.42427314364676 H 0.0 **** 0.06
31981 C 71.4829108777775 90.74459311286587 16.743069636106725 C 0.0 **** -0.24
31982 H 70.64611927751645 91.29802810647494 16.317798719613734 H 0.0 **** 0.06
31983 H 72.22163649402984 91.44560864947998 17.1322374261361 H 0.0 **** 0.06
31984 H 71.939920753124 90.12620464957674 15.970239404579559 H 0.0 **** 0.06
31985 H 71.1239669864396 90.1085310459319 17.552002994097563 H 0.0 **** 0.06
31986 C 107.05667455571798 90.00050271731601 89.6284733668794 C 0.0 **** -0.24
31987 H 106.52726341561831 89.12486003759196 90.00348481148336 H 0.0 **** 0.06
31988 H 107.21685558049298 90.70482486190963 90.44632197340866 H 0.0 **** 0.06
31989 H 106.46294139025723 90.47715786837142 88.84915596900572 H 0.0 **** 0.06
31990 H 108.01884487954028 89.69504889709032 89.21814902911098 H 0.0 **** 0.06
31991 C 26.20104044017728 23.31869606965661 29.57862227645426 C 0.0 **** -0.24
31992 H 26.435629933117298 22.54748329004775 28.844354938433405 H 0.0 **** 0.06
31993 H 27.014523186189876 23.39142684958719 30.301616744818304 H 0.0 **** 0.06
31994 H 25.27771544518521 23.05810958860937 30.09613798684046 H 0.0 **** 0.06
31995 H 26.07737095655665 24.27641251475785 29.07227657193021 H 0.0 **** 0.06
31996 C 3.1664979627738603 32.8543952232838 82.79837858509558 C 0.0 **** -0.24
31997 H 3.25096943385671 33.45697452805206 83.70211060245538 H 0.0 **** 0.06
31998 H 2.341789970634693 32.14963428413165 82.90762895166216 H 0.0 **** 0.06
31999 H 4.094952533388835 32.30484062585509 82.64082936864384 H 0.0 **** 0.06
32000 H 2.979739235065665 33.50364354678646 81.9437707284072 H 0.0 **** 0.06
32001 C 16.460502503549236 27.037090017529863 17.971764786836673 C 0.0 **** -0.24
32002 H 16.571136801460682 26.29382292752311 17.18282632333822 H 0.0 **** 0.06
32003 H 17.087640666672428 26.762833088291956 18.81996624735794 H 0.0 **** 0.06
32004 H 15.41774949205805 27.077874185218008 18.288388741665244 H 0.0 **** 0.06
32005 H 16.763850496169823 28.01439880650676 17.595983730047408 H 0.0 **** 0.06
32006 C 8.036360980693274 84.737976268914 12.29453725897747 C 0.0 **** -0.24
32007 H 7.296951919593766 84.10434706972478 11.806310809427089 H 0.0 **** 0.06
32008 H 7.881032512466703 85.77437983489403 11.994146516603053 H 0.0 **** 0.06
32009 H 9.037120442279758 84.42062318600904 12.00224910926164 H 0.0 **** 0.06
32010 H 7.9286651802686094 84.65313155489468 13.376373154615635 H 0.0 **** 0.06
32011 C 44.75845010537418 106.95783190320253 103.46781087643308 C 0.0 **** -0.24
32012 H 45.31967055414705 106.82033391143958 102.54460738956655 H 0.0 **** 0.06
32013 H 45.322172194458375 106.53846954701143 104.30160912642611 H 0.0 **** 0.06
32014 H 43.79661005794338 106.44972027904217 103.38723018191911 H 0.0 **** 0.06
32015 H 44.595025235548746 108.02113189792647 103.63811415899602 H 0.0 **** 0.06
32016 C 1.055623596668056 97.64986707422491 75.26252234543688 C 0.0 **** -0.24
32017 H 0.6365585940415031 98.64330170486417 75.42632736321349 H 0.0 **** 0.06
32018 H 2.1438553268181977 97.70478946794225 75.29205363724412 H 0.0 **** 0.06
32019 H 0.7363045541799238 97.27732802314381 74.28962881236168 H 0.0 **** 0.06
32020 H 0.7039367440345359 96.97444291943881 76.04328895607739 H 0.0 **** 0.06
32021 C 1.1603644795456205 90.81841136319406 36.29983058884153 C 0.0 **** -0.24
32022 H 1.7966411454888203 91.00316158606068 37.16519768429623 H 0.0 **** 0.06
32023 H 1.0278901861995848 91.74521727381409 35.74138789476481 H 0.0 **** 0.06
32024 H 0.1891289424282263 90.45383037765305 36.63481135839979 H 0.0 **** 0.06
32025 H 1.6270118212660805 90.07084704015381 35.65811357948934 H 0.0 **** 0.06
32026 C 89.92931033667799 41.97164250352881 47.440040633157366 C 0.0 **** -0.24
32027 H 89.74424357256993 43.02311209255174 47.21986599784668 H 0.0 **** 0.06
32028 H 90.71333718429946 41.59634445614509 46.781126206956344 H 0.0 **** 0.06
32029 H 89.01489793136187 41.400700330190375 47.28010679906694 H 0.0 **** 0.06
32030 H 90.24593394334147 41.86878406110344 48.477646754894465 H 0.0 **** 0.06
32031 C 24.020988214038795 67.98832179681676 76.7144653820421 C 0.0 **** -0.24
32032 H 23.460587021034215 68.60733642690303 76.01455809945233 H 0.0 **** 0.06
32033 H 24.502798053606796 67.17330828799257 76.17396455559964 H 0.0 **** 0.06
32034 H 23.340766686895776 67.57749029116212 77.46114406555233 H 0.0 **** 0.06
32035 H 24.77929624944521 68.59410358394734 77.20947766522278 H 0.0 **** 0.06
32036 C 42.337631359874536 93.2089931216122 36.52751071261841 C 0.0 **** -0.24
32037 H 41.94424653774357 92.50185009211845 37.25566236410282 H 0.0 **** 0.06
32038 H 41.96977844483209 94.20978617184369 36.75631941870347 H 0.0 **** 0.06
32039 H 42.009821155475265 92.9213801874352 35.528289436248826 H 0.0 **** 0.06
32040 H 43.42695634791713 93.20386996602915 36.566927616415285 H 0.0 **** 0.06
32041 C 50.95588588103345 18.920523383714396 23.81884051486189 C 0.0 **** -0.24
32042 H 50.10536287705264 19.516871463960456 23.487080814341272 H 0.0 **** 0.06
32043 H 51.382264854119796 19.366696274203832 24.718252918115198 H 0.0 **** 0.06
32044 H 51.71056495237809 18.896071168388346 23.032821784231558 H 0.0 **** 0.06
32045 H 50.62499421945904 17.90587608849802 24.03761523100257 H 0.0 **** 0.06
32046 C 38.41028936628152 32.83676727679922 12.755260527953197 C 0.0 **** -0.24
32047 H 39.301222356514984 33.086225482064464 12.17890223842818 H 0.0 **** 0.06
32048 H 37.5241127625161 32.996287981266136 12.141276801171031 H 0.0 **** 0.06
32049 H 38.36038816301976 33.4724977719213 13.639342807987305 H 0.0 **** 0.06
32050 H 38.45750783547899 31.791612693924037 13.062745857762408 H 0.0 **** 0.06
32051 C 74.75997119094414 7.624793498356908 12.277326653283609 C 0.0 **** -0.24
32052 H 75.5843286142712 6.967449095889265 12.00470799341447 H 0.0 **** 0.06
32053 H 74.69964834802393 7.7023199941558715 13.363013382226086 H 0.0 **** 0.06
32054 H 73.82592912469124 7.218110605526192 11.888746748986946 H 0.0 **** 0.06
32055 H 74.92918235219958 8.614768727541076 11.851700552146227 H 0.0 **** 0.06
32056 C 9.653975914561187 98.75625473432223 9.584140420224315 C 0.0 **** -0.24
32057 H 9.164962086042834 99.71050193092915 9.776386502575662 H 0.0 **** 0.06
32058 H 10.734471144833705 98.87718733206894 9.670310587432766 H 0.0 **** 0.06
32059 H 9.40592782114173 98.4169616872049 8.578267540094686 H 0.0 **** 0.06
32060 H 9.311585959090095 98.01834680508207 10.309915791004357 H 0.0 **** 0.06
32061 C 27.48735847612309 22.554974068302528 7.361561225070687 C 0.0 **** -0.24
32062 H 28.494429194546072 22.926618766048563 7.54686254182721 H 0.0 **** 0.06
32063 H 27.504991340136655 21.862593755747753 6.52014430850511 H 0.0 **** 0.06
32064 H 26.827903290578604 23.39160123009229 7.130620287625987 H 0.0 **** 0.06
32065 H 27.121259467790594 22.03886006458852 8.249725495266802 H 0.0 **** 0.06
32066 C 6.0730832302077715 69.41520954584273 90.2531956832501 C 0.0 **** -0.24
32067 H 6.170767712563531 70.13817447306799 91.06287481988032 H 0.0 **** 0.06
32068 H 6.6450172607558216 69.75776919199937 89.39016829388513 H 0.0 **** 0.06
32069 H 5.022582265387257 69.31821210144665 89.97821367388293 H 0.0 **** 0.06
32070 H 6.453447058647839 68.4479274700726 90.58110053816864 H 0.0 **** 0.06
32071 C 28.24674020338697 97.29444638081783 30.229258667275218 C 0.0 **** -0.24
32072 H 27.675784435332524 98.21226387300604 30.36736150234259 H 0.0 **** 0.06
32073 H 28.065466098989702 96.62399645024077 31.069180353854904 H 0.0 **** 0.06
32074 H 29.309409748081485 97.53264277454308 30.177260493074584 H 0.0 **** 0.06
32075 H 27.937522671752454 96.80955546143944 29.30300103207398 H 0.0 **** 0.06
32076 C 7.559200811751737 11.927408432310216 80.26061046977418 C 0.0 **** -0.24
32077 H 7.163866242089313 12.215745201273108 81.23480006496422 H 0.0 **** 0.06
32078 H 6.762521688093557 11.486329750502648 79.66214259302889 H 0.0 **** 0.06
32079 H 8.359608586396035 11.200290682801182 80.39429290106806 H 0.0 **** 0.06
32080 H 7.950295678606182 12.809083525233035 79.75187207980524 H 0.0 **** 0.06
32081 C 106.83859710975294 89.6245280423519 49.76156918609263 C 0.0 **** -0.24
32082 H 106.4609360791116 88.73629826367198 49.25549720599747 H 0.0 **** 0.06
32083 H 106.20056971044293 89.85497092764311 50.615136412647615 H 0.0 **** 0.06
32084 H 106.83697545814357 90.46573242756612 49.068203892929034 H 0.0 **** 0.06
32085 H 107.85551189301373 89.44035320502039 50.10691940918667 H 0.0 **** 0.06
32086 C 74.4068934596389 33.91620045083886 23.613402315744054 C 0.0 **** -0.24
32087 H 74.52356012763677 32.86282382672912 23.357917563394523 H 0.0 **** 0.06
32088 H 75.38976747431971 34.37142462895841 23.732727304072142 H 0.0 **** 0.06
32089 H 73.8491959665427 34.00267400145796 24.546290159125107 H 0.0 **** 0.06
32090 H 73.8642761140963 34.425167213209214 22.816887340836388 H 0.0 **** 0.06
32091 C 22.00389569899994 12.971474953318364 43.64959348076184 C 0.0 **** -0.24
32092 H 21.532586289053484 12.222417529045401 43.01327180136022 H 0.0 **** 0.06
32093 H 21.234085785149205 13.557224533099586 44.151703006511184 H 0.0 **** 0.06
32094 H 22.621592928789084 13.630313264622885 43.039177981891214 H 0.0 **** 0.06
32095 H 22.626824949833804 12.475166535777817 44.39383132843864 H 0.0 **** 0.06
32096 C 60.20484821137133 69.68147721257571 85.19764902366535 C 0.0 **** -0.24
32097 H 60.717604630333966 68.7284037841872 85.07001387447764 H 0.0 **** 0.06
32098 H 59.71579592814254 69.95773098788102 84.26364872041896 H 0.0 **** 0.06
32099 H 60.92906308275545 70.44913302064275 85.47113991453745 H 0.0 **** 0.06
32100 H 59.458364468360514 69.58974230302663 85.98615746132404 H 0.0 **** 0.06
32101 C 105.76885508212258 15.698573434739359 12.459125173808133 C 0.0 **** -0.24
32102 H 105.96438452745532 14.701701300466624 12.062209417164865 H 0.0 **** 0.06
32103 H 106.04995183031313 15.731159377510437 13.512361947453456 H 0.0 **** 0.06
32104 H 104.70802556622075 15.927353869285781 12.358820152173791 H 0.0 **** 0.06
32105 H 106.35247618440133 16.431931992487932 11.902883783111605 H 0.0 **** 0.06
32106 C 62.997337657166085 86.40362519420567 3.639210620150365 C 0.0 **** -0.24
32107 H 63.37523487383888 85.44429747918944 3.99228975607984 H 0.0 **** 0.06
32108 H 62.02742672744344 86.60194063094657 4.094566090877027 H 0.0 **** 0.06
32109 H 62.89164352431071 86.37484079506673 2.554664134824379 H 0.0 **** 0.06
32110 H 63.69645583996619 87.1933168213546 3.915326156483399 H 0.0 **** 0.06
32111 C 32.05802003403659 87.72645905189124 9.10395096967278 C 0.0 **** -0.24
32112 H 31.8269800911508 88.4963621326423 9.84023261498865 H 0.0 **** 0.06
32113 H 31.13628952632024 87.2409240735748 8.785022345987826 H 0.0 **** 0.06
32114 H 32.723451075225114 86.98749023673138 9.54877387321099 H 0.0 **** 0.06
32115 H 32.546124666580084 88.18374833867786 8.24286428689885 H 0.0 **** 0.06
32116 C 0.4620558167288493 80.65108652238462 14.578611183548162 C 0.0 **** -0.24
32117 H 0.2811055143284449 81.71993173306129 14.697016508723436 H 0.0 **** 0.06
32118 H -0.41075801004717505 80.18402393888772 14.121031145655166 H 0.0 **** 0.06
32119 H 0.643777728174868 80.20343019181337 15.555445251451573 H 0.0 **** 0.06
32120 H 1.332960295831981 80.49909981161596 13.94130962792687 H 0.0 **** 0.06
32121 C 22.32200894398207 34.352202190468475 52.27165466422065 C 0.0 **** -0.24
32122 H 22.225189572443725 34.77197082254755 51.26956522189823 H 0.0 **** 0.06
32123 H 22.78287768211038 35.08892207212874 52.929893756026445 H 0.0 **** 0.06
32124 H 22.945542245076496 33.45900497600631 52.232695424646124 H 0.0 **** 0.06
32125 H 21.335308536499582 34.08995141873739 52.652429747826034 H 0.0 **** 0.06
32126 C 82.66550629200299 93.83847236203547 31.694717542590013 C 0.0 **** -0.24
32127 H 83.74910128754732 93.72187221729013 31.698477811035815 H 0.0 **** 0.06
32128 H 82.2022023045845 92.9368600043407 32.09473180294374 H 0.0 **** 0.06
32129 H 82.32144787330112 94.00163321978863 30.67297038938836 H 0.0 **** 0.06
32130 H 82.38965689589445 94.69342753219334 32.31177152391978 H 0.0 **** 0.06
32131 C 107.59930304178883 105.70504642330991 73.06999249604206 C 0.0 **** -0.24
32132 H 108.6702689969794 105.9008903645464 73.11621916576537 H 0.0 **** 0.06
32133 H 107.38092884736969 105.07974639294554 72.20440804740771 H 0.0 **** 0.06
32134 H 107.06101702151007 106.64974887660941 72.98218937152677 H 0.0 **** 0.06
32135 H 107.28497565674633 105.19136250690315 73.97903982088867 H 0.0 **** 0.06
32136 C 16.156825277188403 38.2884364887438 27.636837802800244 C 0.0 **** -0.24
32137 H 16.5938208349815 38.39067999970999 26.643978313749557 H 0.0 **** 0.06
32138 H 16.940009867782237 38.04155481326171 28.354794126194292 H 0.0 **** 0.06
32139 H 15.41100109117184 37.49368388905964 27.624531344041202 H 0.0 **** 0.06
32140 H 15.682951971010795 39.22699605787196 27.923771370521507 H 0.0 **** 0.06
32141 C 75.12552974422749 70.54217355969531 86.1867393709972 C 0.0 **** -0.24
32142 H 76.08526978055687 70.47000012912875 85.67718582571496 H 0.0 **** 0.06
32143 H 74.59984965656369 69.58966103242783 86.10865432666162 H 0.0 **** 0.06
32144 H 74.52637066833569 71.32692035758166 85.72400643522099 H 0.0 **** 0.06
32145 H 75.28842319141609 70.78216841010736 87.2374743821224 H 0.0 **** 0.06
32146 C 80.57417944264489 38.09335931253037 76.07512959165274 C 0.0 **** -0.24
32147 H 79.71153363848032 37.4473680537626 76.23533360282234 H 0.0 **** 0.06
32148 H 81.32009071004572 37.901264395323494 76.8478629875633 H 0.0 **** 0.06
32149 H 80.2611386447532 39.136177499447854 76.12353967968255 H 0.0 **** 0.06
32150 H 81.00529398998714 37.88804343732676 75.094712559086 H 0.0 **** 0.06
32151 C 30.65886150854844 80.7602438079914 77.95029262824087 C 0.0 **** -0.24
32152 H 31.01563631726411 81.115414204743 78.91722933932938 H 0.0 **** 0.06
32153 H 31.035823188964045 79.75358828804761 77.77102357417728 H 0.0 **** 0.06
32154 H 31.01513668953637 81.42745186060779 77.16468055358281 H 0.0 **** 0.06
32155 H 29.568982041067443 80.74769977036617 77.94917391000668 H 0.0 **** 0.06
32156 C 33.71632772742538 66.38471831184432 87.92326652412072 C 0.0 **** -0.24
32157 H 34.02619243746326 66.82055559198625 86.97346781422664 H 0.0 **** 0.06
32158 H 33.44350421636983 67.18105647321227 88.6161660531601 H 0.0 **** 0.06
32159 H 34.53801367861389 65.80357446119962 88.34198467714444 H 0.0 **** 0.06
32160 H 32.85687032186605 65.73373720062347 87.76023747841418 H 0.0 **** 0.06
32161 C 93.2034186214143 54.732102061952695 37.135969172699845 C 0.0 **** -0.24
32162 H 93.91717361449258 55.36370037130769 36.606089658133875 H 0.0 **** 0.06
32163 H 93.6800382936911 54.30785989626248 38.01968074088941 H 0.0 **** 0.06
32164 H 92.8735774675801 53.92733723932189 36.47930241204698 H 0.0 **** 0.06
32165 H 92.34389079437454 55.32971809056156 37.43783140662237 H 0.0 **** 0.06
32166 C 31.188432349026215 102.68359003816188 92.2628993618246 C 0.0 **** -0.24
32167 H 31.14000031736755 103.72412378929744 91.93956240333195 H 0.0 **** 0.06
32168 H 30.221668097720254 102.38437693662726 92.66735238484415 H 0.0 **** 0.06
32169 H 31.953190247098973 102.57786650320884 93.03173790623872 H 0.0 **** 0.06
32170 H 31.43813989538924 102.05065825270445 91.41177755912435 H 0.0 **** 0.06
32171 C 39.916165695908205 51.29206655033124 48.64688514079728 C 0.0 **** -0.24
32172 H 40.76982775593871 51.83649348298017 48.24458026831178 H 0.0 **** 0.06
32173 H 39.865249623686424 50.3044345794556 48.186918207014116 H 0.0 **** 0.06
32174 H 39.00008869783616 51.84061016534221 48.43102493250706 H 0.0 **** 0.06
32175 H 40.030283816854734 51.18475459398048 49.725714634811595 H 0.0 **** 0.06
32176 C 42.87659939567635 16.93413029674042 57.72263495306686 C 0.0 **** -0.24
32177 H 42.85783447430762 17.98118629535448 58.02274394911319 H 0.0 **** 0.06
32178 H 43.78368275534203 16.736252531607008 57.15094879298863 H 0.0 **** 0.06
32179 H 42.003746248187156 16.71651521805239 57.10608731818803 H 0.0 **** 0.06
32180 H 42.861134104868654 16.30256714194794 58.610759751977696 H 0.0 **** 0.06
32181 C 29.206206651464214 1.9570948436893048 83.97305002429538 C 0.0 **** -0.24
32182 H 28.133062800243756 2.038012288218283 84.14312193822803 H 0.0 **** 0.06
32183 H 29.44187351162345 2.3003196898135627 82.96566395001918 H 0.0 **** 0.06
32184 H 29.514234160957038 0.9172342387918206 84.08396827572537 H 0.0 **** 0.06
32185 H 29.736706563861475 2.5716194001174983 84.7001327272025 H 0.0 **** 0.06
32186 C 39.924572062670364 85.93566914348703 25.788569760492777 C 0.0 **** -0.24
32187 H 39.69109073175926 85.2002739839514 26.557800049730787 H 0.0 **** 0.06
32188 H 41.00613222191035 86.01032756185059 25.673150377998354 H 0.0 **** 0.06
32189 H 39.52235670236004 86.90669705469003 26.079967317744973 H 0.0 **** 0.06
32190 H 39.47789985301978 85.62746122086774 24.843282145202267 H 0.0 **** 0.06
32191 C 89.72915812499373 2.308394227300596 87.51083820805877 C 0.0 **** -0.24
32192 H 88.85919459191614 1.652360318792546 87.50917039449669 H 0.0 **** 0.06
32193 H 89.45802233298281 3.271553274417329 87.94428710171185 H 0.0 **** 0.06
32194 H 90.07474411126145 2.4548172001285877 86.48729997128287 H 0.0 **** 0.06
32195 H 90.52545721309741 1.854782730096332 88.10142119294977 H 0.0 **** 0.06
32196 C 95.50900662101151 13.446166842135057 8.72157256481951 C 0.0 **** -0.24
32197 H 95.4770265539118 13.145840005737 9.768830376109577 H 0.0 **** 0.06
32198 H 94.51278305487895 13.757271010095309 8.402919463011543 H 0.0 **** 0.06
32199 H 95.83961140738677 12.604781642644753 8.112819519581265 H 0.0 **** 0.06
32200 H 96.2046184069597 14.276621550160115 8.603145129583737 H 0.0 **** 0.06
32201 C 34.78192472354772 33.29567511373291 13.53784881571373 C 0.0 **** -0.24
32202 H 35.45870103682583 32.539906500908955 13.936651394171761 H 0.0 **** 0.06
32203 H 34.53528717956874 34.012461113637286 14.321457546484083 H 0.0 **** 0.06
32204 H 33.86966308782738 32.81510286510105 13.182778482092488 H 0.0 **** 0.06
32205 H 35.2654836530582 33.81430442134925 12.709065161886159 H 0.0 **** 0.06
32206 C 71.32814660664343 11.62329430312204 80.76039565690905 C 0.0 **** -0.24
32207 H 71.02756126407185 12.19926133374707 79.88524407648481 H 0.0 **** 0.06
32208 H 71.74869248962473 12.293873830682134 81.51025708197034 H 0.0 **** 0.06
32209 H 72.07766584252838 10.885955879406406 80.47035962486203 H 0.0 **** 0.06
32210 H 70.45866683034878 11.11408616865245 81.17572184431896 H 0.0 **** 0.06
32211 C 76.03755536653779 33.82883686566245 75.18619740063646 C 0.0 **** -0.24
32212 H 77.07090729103618 33.484508512594914 75.1484133558238 H 0.0 **** 0.06
32213 H 76.02059262495766 34.91358753089412 75.29488574783427 H 0.0 **** 0.06
32214 H 75.53375305295947 33.370303543308864 76.0371517407347 H 0.0 **** 0.06
32215 H 75.52654964804782 33.54626253982326 74.26607961248253 H 0.0 **** 0.06
32216 C 75.55534220031237 2.5408842811085606 36.872347420791776 C 0.0 **** -0.24
32217 H 75.77150232766164 3.1828824199408245 37.7252624022669 H 0.0 **** 0.06
32218 H 74.91879194739158 3.0763481108544966 36.16719908330221 H 0.0 **** 0.06
32219 H 75.04247088238995 1.6420094028580934 37.215156185351034 H 0.0 **** 0.06
32220 H 76.48767339415919 2.261957747023189 36.381911522375624 H 0.0 **** 0.06
32221 C 33.38504083135945 19.61036430395876 4.263981587860883 C 0.0 **** -0.24
32222 H 33.045801922975954 18.707525998950587 4.771823907333214 H 0.0 **** 0.06
32223 H 32.537714180010425 20.278726851423954 4.105760243593352 H 0.0 **** 0.06
32224 H 33.82154622852312 19.34317714189538 3.30151396227609 H 0.0 **** 0.06
32225 H 34.13396103516669 20.1117769876862 4.8760295047934505 H 0.0 **** 0.06
32226 C 93.47922120954019 63.51834210209796 36.52191359206904 C 0.0 **** -0.24
32227 H 92.98229598363724 64.3200960333129 35.97534993111759 H 0.0 **** 0.06
32228 H 93.68953114258619 63.84881924403288 37.53970655517847 H 0.0 **** 0.06
32229 H 94.4138270473855 63.26401776345517 36.02170070157938 H 0.0 **** 0.06
32230 H 92.83152375542647 62.64255950838367 36.55026285291211 H 0.0 **** 0.06
32231 C 19.032748568129037 42.602384709342395 94.01683961553687 C 0.0 **** -0.24
32232 H 18.67224273181346 41.5756245547449 94.07773280604766 H 0.0 **** 0.06
32233 H 18.699456230409456 43.15741490845709 94.89361127768305 H 0.0 **** 0.06
32234 H 18.638296861901406 43.07251725352642 93.11635525960347 H 0.0 **** 0.06
32235 H 20.12291651383524 42.60245930029237 93.97970749668946 H 0.0 **** 0.06
32236 C 108.31287809796476 68.04718348255696 83.15179727902677 C 0.0 **** -0.24
32237 H 107.94356400837732 69.00384167221674 83.52362810224668 H 0.0 **** 0.06
32238 H 108.86384547489529 67.53944414596533 83.94385763641873 H 0.0 **** 0.06
32239 H 108.97187150371933 68.21772105208969 82.30147709961187 H 0.0 **** 0.06
32240 H 107.47017191811624 67.42858482930848 82.84123018190814 H 0.0 **** 0.06
32241 C 53.353462067565175 64.85031129524286 41.97563913311048 C 0.0 **** -0.24
32242 H 52.33727578646242 65.01877970145382 41.62086647215398 H 0.0 **** 0.06
32243 H 53.60903264238674 65.60689201916672 42.717523324756044 H 0.0 **** 0.06
32244 H 54.04659123637512 64.91582166901351 41.13614566839263 H 0.0 **** 0.06
32245 H 53.42125227332708 63.86097876849779 42.42647106365463 H 0.0 **** 0.06
32246 C 40.457752159265794 39.75577572156385 82.76672448567354 C 0.0 **** -0.24
32247 H 40.72029061473114 40.71385892222975 83.21374006985599 H 0.0 **** 0.06
32248 H 41.27613182752492 39.41491154574544 82.13132046199092 H 0.0 **** 0.06
32249 H 39.55530772135552 39.87003199921622 82.16681418763568 H 0.0 **** 0.06
32250 H 40.27976375782589 39.02399301310322 83.55420465727153 H 0.0 **** 0.06
32251 C 60.96412966585099 63.44238055609971 43.74755193664879 C 0.0 **** -0.24
32252 H 60.57135986270022 63.0427594733996 44.682920726935436 H 0.0 **** 0.06
32253 H 61.81900460240206 64.08414732363332 43.957735333622225 H 0.0 **** 0.06
32254 H 60.1882066309863 64.02066961430663 43.24639322996313 H 0.0 **** 0.06
32255 H 61.27585692434951 62.6189580957504 43.1050829299146 H 0.0 **** 0.06
32256 C 72.95212982291179 82.4886681411947 72.78277848236434 C 0.0 **** -0.24
32257 H 73.58389457529216 83.37037534560255 72.89167559464192 H 0.0 **** 0.06
32258 H 73.27873565454377 81.91318860124423 71.91670239741725 H 0.0 **** 0.06
32259 H 71.91682803749404 82.79859179241242 72.64453466543364 H 0.0 **** 0.06
32260 H 73.0309045351267 81.87352258256959 73.67896949613896 H 0.0 **** 0.06
32261 C 0.26040796920625553 66.07904974058533 73.3554322998229 C 0.0 **** -0.24
32262 H -0.6722828670052081 66.48640415623035 72.96649785965842 H 0.0 **** 0.06
32263 H 0.9071778662284373 66.89642877054087 73.676360874507 H 0.0 **** 0.06
32264 H 0.7593996323409442 65.50520712435272 72.57471799842828 H 0.0 **** 0.06
32265 H 0.046602127924472825 65.42969955638512 74.20444600308137 H 0.0 **** 0.06
32266 C 95.46969781022625 55.052608627382824 76.51089941908691 C 0.0 **** -0.24
32267 H 94.52381854800845 54.547688223899634 76.31224464315136 H 0.0 **** 0.06
32268 H 95.40392656824329 55.5860173278352 77.45959705466845 H 0.0 **** 0.06
32269 H 95.67867568369914 55.75990838701903 75.7087272878241 H 0.0 **** 0.06
32270 H 96.27067579617761 54.315052976666315 76.56296475778458 H 0.0 **** 0.06
32271 C 72.1839939478059 79.36265718452819 39.754233539705396 C 0.0 **** -0.24
32272 H 72.0852080150794 78.30801784005148 39.49693786947341 H 0.0 **** 0.06
32273 H 71.81266042917001 79.97364949943596 38.93036658183648 H 0.0 **** 0.06
32274 H 73.23312102859359 79.59480951573886 39.93588292689351 H 0.0 **** 0.06
32275 H 71.60401323486325 79.57242908031269 40.65270499969425 H 0.0 **** 0.06
32276 C 71.62491589518834 108.59970886030227 11.081627358487808 C 0.0 **** -0.24
32277 H 72.18326103910871 108.9670090745347 11.943047781981761 H 0.0 **** 0.06
32278 H 71.28894115984141 109.44340499045622 10.479405103500369 H 0.0 **** 0.06
32279 H 70.75985876932607 108.0320779937487 11.425390738385232 H 0.0 **** 0.06
32280 H 72.26697249646858 107.95514501678834 10.48044545084602 H 0.0 **** 0.06
32281 C 55.79134288844296 76.6800338336063 87.47428772190379 C 0.0 **** -0.24
32282 H 56.02840391468678 76.79748593014537 88.53182445969576 H 0.0 **** 0.06
32283 H 54.914540999927866 76.0407557254477 87.36809994794504 H 0.0 **** 0.06
32284 H 56.63790252316556 76.22382827933143 86.96040332034906 H 0.0 **** 0.06
32285 H 55.58485345395774 77.65670170537462 87.03700197217401 H 0.0 **** 0.06
32286 C 59.92329904630941 71.12261301950866 25.52126380725639 C 0.0 **** -0.24
32287 H 59.82679919458809 71.9415731138842 24.80976404374104 H 0.0 **** 0.06
32288 H 60.66871234454459 71.38183270483717 26.273997557890425 H 0.0 **** 0.06
32289 H 60.236503934771235 70.21989125475815 24.99643622248965 H 0.0 **** 0.06
32290 H 58.96361150563109 70.94582783772032 26.00601079694343 H 0.0 **** 0.06
32291 C 92.34336086768644 60.31482798035836 8.888317200597186 C 0.0 **** -0.24
32292 H 91.33045076947697 60.43136681521497 9.272691571585 H 0.0 **** 0.06
32293 H 92.87450969676493 59.572501980205175 9.485163041730885 H 0.0 **** 0.06
32294 H 92.86604790131479 61.26905095747088 8.94532231597367 H 0.0 **** 0.06
32295 H 92.30161174959467 59.984092972165 7.84990192006731 H 0.0 **** 0.06
32296 C 84.08380593088543 87.66239713712582 14.02663688532374 C 0.0 **** -0.24
32297 H 83.06985061468959 87.26607419212121 13.962741183625383 H 0.0 **** 0.06
32298 H 84.1398855467803 88.60389042883463 13.480730945449181 H 0.0 **** 0.06
32299 H 84.78095600913787 86.94703867491336 13.589307550188039 H 0.0 **** 0.06
32300 H 84.34251160203723 87.83074318856171 15.071640141918124 H 0.0 **** 0.06
32301 C 1.5498692243540715 97.80144770357032 101.97278174179766 C 0.0 **** -0.24
32302 H 2.2700576990508177 97.66276078703459 101.16694160698957 H 0.0 **** 0.06
32303 H 1.0331871281413436 98.75243066101211 101.8392791521861 H 0.0 **** 0.06
32304 H 2.0708573753195223 97.80162924627331 102.92991712872193 H 0.0 **** 0.06
32305 H 0.8242418754803396 96.98770309579805 101.95465513534357 H 0.0 **** 0.06
32306 C 85.19264049734113 88.17588830608966 65.03484308497553 C 0.0 **** -0.24
32307 H 84.2652275063034 87.60483948293954 65.07308215839885 H 0.0 **** 0.06
32308 H 85.79012253674642 87.8413943086236 64.18700889049404 H 0.0 **** 0.06
32309 H 85.75144584349681 88.02105235752971 65.95818934306175 H 0.0 **** 0.06
32310 H 84.96229902073412 89.23503432670988 64.92317242806706 H 0.0 **** 0.06
32311 C 41.71269128947975 9.546772338419771 26.26874795465625 C 0.0 **** -0.24
32312 H 42.45259113915944 8.910026390354858 25.78461302218666 H 0.0 **** 0.06
32313 H 41.234535128497 8.996746885970083 27.07939680658012 H 0.0 **** 0.06
32314 H 40.96007032148597 9.848805770214824 25.541496092222232 H 0.0 **** 0.06
32315 H 42.204559444619264 10.432853303526258 26.67127889039918 H 0.0 **** 0.06
32316 C 10.013575860727883 93.19186048103919 44.053868277278525 C 0.0 **** -0.24
32317 H 10.875414602769297 92.75210771287995 43.55236620682706 H 0.0 **** 0.06
32318 H 10.159615362132286 93.14639757671938 45.13329658631659 H 0.0 **** 0.06
32319 H 9.115019917983375 92.6368468655837 43.78503199142236 H 0.0 **** 0.06
32320 H 9.904804459996114 94.23126117439408 43.74487827349623 H 0.0 **** 0.06
32321 C 19.184861166540742 38.72175329883811 79.42605331049418 C 0.0 **** -0.24
32322 H 18.656548967094068 39.61038823170912 79.08020644573502 H 0.0 **** 0.06
32323 H 19.970190325976432 38.46657498830149 78.71412913348965 H 0.0 **** 0.06
32324 H 18.4839354857115 37.89079541447768 79.50734944994528 H 0.0 **** 0.06
32325 H 19.62840874461935 38.919666277524925 80.40169148415133 H 0.0 **** 0.06
32326 C 92.14659049699532 82.6528521354818 26.60616085410138 C 0.0 **** -0.24
32327 H 92.14672907872347 83.04512054589216 25.58858854756358 H 0.0 **** 0.06
32328 H 93.14163283994276 82.28309661349931 26.852697724727737 H 0.0 **** 0.06
32329 H 91.42650103438285 81.83831566047698 26.68065469661361 H 0.0 **** 0.06
32330 H 91.87054500988916 83.445932190989 27.300977930945358 H 0.0 **** 0.06
32331 C 86.63783722404605 61.079994187223065 0.5718054567221316 C 0.0 **** -0.24
32332 H 86.47269329984738 61.96548302273908 1.1865671413487746 H 0.0 **** 0.06
32333 H 86.41214212583662 61.31318765826157 -0.46870181601411787 H 0.0 **** 0.06
32334 H 85.98779169159832 60.2743636418428 0.9134926026349035 H 0.0 **** 0.06
32335 H 87.67847750082859 60.768039761034004 0.6571815987303751 H 0.0 **** 0.06
32336 C 98.22177159762475 35.19305911206169 29.36610382173226 C 0.0 **** -0.24
32337 H 97.51473547399425 36.02301188865408 29.34927478290559 H 0.0 **** 0.06
32338 H 97.68059741655765 34.25413670957633 29.244349359894052 H 0.0 **** 0.06
32339 H 98.75155054649306 35.18732754812254 30.317424040820185 H 0.0 **** 0.06
32340 H 98.93702769214156 35.309022393169215 28.551842132863513 H 0.0 **** 0.06
32341 C 16.032006265214108 49.09269300409193 32.59210951470456 C 0.0 **** -0.24
32342 H 17.000506036629048 48.5933836583186 32.64276838155985 H 0.0 **** 0.06
32343 H 15.867442767496968 49.65787151284587 33.51015310392722 H 0.0 **** 0.06
32344 H 15.245681286711573 48.34668610197389 32.47939054744481 H 0.0 **** 0.06
32345 H 16.017284508606025 49.770077885362184 31.73974179373883 H 0.0 **** 0.06
32346 C 59.75380794884762 1.149767767900073 7.303855402235968 C 0.0 **** -0.24
32347 H 60.15426046443747 0.9093834283266631 6.319653720244617 H 0.0 **** 0.06
32348 H 58.89057547881203 0.5162636300481722 7.509697845141545 H 0.0 **** 0.06
32349 H 59.45061115379998 2.19698872585829 7.32571587665376 H 0.0 **** 0.06
32350 H 60.51969468520474 0.9778274109704057 8.06012181242977 H 0.0 **** 0.06
32351 C 12.082360824157831 44.79810674627663 9.57666774091166 C 0.0 **** -0.24
32352 H 13.112173707621196 45.078222519910106 9.35758696602511 H 0.0 **** 0.06
32353 H 11.787640957837425 43.96911677271666 8.933553702405248 H 0.0 **** 0.06
32354 H 11.427437662084401 45.650397424299086 9.395046911872626 H 0.0 **** 0.06
32355 H 12.002733583940767 44.49477030967731 10.621319572333803 H 0.0 **** 0.06
32356 C 78.93478349455636 2.7719585021472994 41.212662678800626 C 0.0 **** -0.24
32357 H 78.89979606103704 2.9872381432589776 40.143893056791626 H 0.0 **** 0.06
32358 H 79.93467500504885 2.9808597054087613 41.59265492043005 H 0.0 **** 0.06
32359 H 78.69418259386718 1.721477747265027 41.37899457959213 H 0.0 **** 0.06
32360 H 78.20915115166021 3.398039925067309 41.73306221690174 H 0.0 **** 0.06
32361 C 51.88242838322254 57.41981028313813 5.2276794196238825 C 0.0 **** -0.24
32362 H 52.62988639177034 57.89139187511233 4.589237394024366 H 0.0 **** 0.06
32363 H 51.51005547551985 58.147352196683926 5.948665570655919 H 0.0 **** 0.06
32364 H 52.33391752882011 56.58159048307351 5.7567294121884345 H 0.0 **** 0.06
32365 H 51.05593490743079 57.060002147698185 4.614413954676564 H 0.0 **** 0.06
32366 C 15.489225740096959 57.02158868119756 37.89639680762663 C 0.0 **** -0.24
32367 H 15.409300324312255 57.154409123852446 36.81761253516592 H 0.0 **** 0.06
32368 H 16.526368628074767 57.156562405716215 38.20334401286988 H 0.0 **** 0.06
32369 H 15.157570749825918 56.01829564727359 38.16445638300149 H 0.0 **** 0.06
32370 H 14.862843750456147 57.75821405349677 38.40041820814082 H 0.0 **** 0.06
32371 C 22.851201186805948 53.349453753006 88.3135736002071 C 0.0 **** -0.24
32372 H 22.542934757682353 52.327898000671695 88.53583361008945 H 0.0 **** 0.06
32373 H 21.98568950977916 53.926963491870936 87.98893857824352 H 0.0 **** 0.06
32374 H 23.599257003377023 53.338878849826784 87.52146092990533 H 0.0 **** 0.06
32375 H 23.275853638633517 53.80354582274941 89.20931663782888 H 0.0 **** 0.06
32376 C 42.08164516821147 102.91568587709475 2.1723021266275993 C 0.0 **** -0.24
32377 H 42.087346404871816 103.59936410537131 3.0213860175062877 H 0.0 **** 0.06
32378 H 41.21418010702646 102.25997780562142 2.239130991025462 H 0.0 **** 0.06
32379 H 42.99243148347684 102.316630779836 2.184308938187442 H 0.0 **** 0.06
32380 H 42.035796699016615 103.48814939135329 1.2458058711221724 H 0.0 **** 0.06
32381 C 33.23344110533439 93.22989682280848 36.25371901246474 C 0.0 **** -0.24
32382 H 32.33437759128938 92.97982655973084 36.81780993727928 H 0.0 **** 0.06
32383 H 33.28238508168933 94.30988966777308 36.11006710538323 H 0.0 **** 0.06
32384 H 33.20137679007985 92.73538421788751 35.28232358321207 H 0.0 **** 0.06
32385 H 34.11201163226815 92.89490424484504 36.803797729924206 H 0.0 **** 0.06
32386 C 46.65985903267983 51.79496603155192 72.12689013751907 C 0.0 **** -0.24
32387 H 47.495844970426845 52.233009286575566 71.58116172035287 H 0.0 **** 0.06
32388 H 46.691041361546866 52.12647252838835 73.16536595699074 H 0.0 **** 0.06
32389 H 46.73263133589029 50.70772192696924 72.08991250934565 H 0.0 **** 0.06
32390 H 45.72225723227473 52.11242555606756 71.67180979111694 H 0.0 **** 0.06
32391 C 71.9571826390537 90.91682573065214 9.412514527707316 C 0.0 **** -0.24
32392 H 70.94349518938094 90.52934939681313 9.512277677930086 H 0.0 **** 0.06
32393 H 72.66640855205154 90.18186981937868 9.794947974555754 H 0.0 **** 0.06
32394 H 72.0508162417587 91.84158029402806 9.981522954521779 H 0.0 **** 0.06
32395 H 72.16884933622981 91.11409522056306 8.360949080092524 H 0.0 **** 0.06
32396 C 12.219000828746857 29.026667710187127 64.9687138605592 C 0.0 **** -0.24
32397 H 11.943608065867352 29.60489140377007 65.85069801491932 H 0.0 **** 0.06
32398 H 12.583028974693704 28.046088415179753 65.27650543362415 H 0.0 **** 0.06
32399 H 13.003540248429829 29.550121412857038 64.42160599217993 H 0.0 **** 0.06
32400 H 11.346782021289428 28.90530350138505 64.32616973232916 H 0.0 **** 0.06
32401 C 33.60717788175822 89.64277943299969 67.47327509449474 C 0.0 **** -0.24
32402 H 32.60398296605736 89.96094088476983 67.18922910301512 H 0.0 **** 0.06
32403 H 34.092693679343185 89.16956399801836 66.61921510011587 H 0.0 **** 0.06
32404 H 33.54404116950914 88.93065940382299 68.29589874385914 H 0.0 **** 0.06
32405 H 34.18841561621636 90.50979250655358 67.7878651613131 H 0.0 **** 0.06
32406 C 2.989429074824301 91.60582090794938 48.70859371467793 C 0.0 **** -0.24
32407 H 3.705966536335467 91.00277645344315 49.26703919765313 H 0.0 **** 0.06
32408 H 2.0620009540190836 91.68590319674762 49.27516563704506 H 0.0 **** 0.06
32409 H 2.789468511825987 91.13387640003697 47.746863505546855 H 0.0 **** 0.06
32410 H 3.4029885613059037 92.6012214384378 48.544657051879426 H 0.0 **** 0.06
32411 C 73.39297764199583 45.05552836317386 68.26566693958856 C 0.0 **** -0.24
32412 H 72.95738139097477 44.25137834633966 68.85939630567397 H 0.0 **** 0.06
32413 H 73.18158714122023 46.013466581040404 68.74054405764194 H 0.0 **** 0.06
32414 H 72.96210681951862 45.0423681821224 67.26490274652805 H 0.0 **** 0.06
32415 H 74.47158282336841 44.91332654486396 68.19922625122784 H 0.0 **** 0.06
32416 C 49.38962725069956 95.09105588214355 13.618122374077245 C 0.0 **** -0.24
32417 H 50.46437470732741 94.91588432120913 13.582701497455076 H 0.0 **** 0.06
32418 H 48.97572789241309 95.01350293281932 12.612511739565264 H 0.0 **** 0.06
32419 H 49.19613210852958 96.0880794152198 14.014331392623347 H 0.0 **** 0.06
32420 H 48.92160477540253 94.34728830251214 14.263463867461653 H 0.0 **** 0.06
32421 C 67.54581542266551 58.76870445789032 39.48013788262165 C 0.0 **** -0.24
32422 H 67.66597599454981 59.5035328603789 38.684124995487 H 0.0 **** 0.06
32423 H 67.82760176702891 59.21599437223853 40.433288996224604 H 0.0 **** 0.06
32424 H 68.18455295947932 57.90844422743274 39.27893008240352 H 0.0 **** 0.06
32425 H 66.50536368190757 58.447315790515404 39.52255650530583 H 0.0 **** 0.06
32426 C 96.48830644016016 84.31083758281545 46.86659642525569 C 0.0 **** -0.24
32427 H 95.68115209795326 84.23362397269602 47.59638604304513 H 0.0 **** 0.06
32428 H 97.43659431006074 84.44225918467015 47.38816268567717 H 0.0 **** 0.06
32429 H 96.30858059423105 85.1660921251073 46.21506502994612 H 0.0 **** 0.06
32430 H 96.52471434015814 83.40003130379245 46.268622121214435 H 0.0 **** 0.06
32431 C 90.38924629620925 103.29563656040254 1.6708875715102636 C 0.0 **** -0.24
32432 H 91.04845553465611 102.43490044532743 1.5563214089689836 H 0.0 **** 0.06
32433 H 89.37489648710607 103.01538101211473 1.387521839569402 H 0.0 **** 0.06
32434 H 90.73548980595899 104.10576095353194 1.0290941763502417 H 0.0 **** 0.06
32435 H 90.40001056529337 103.62529687193741 2.7103740473029774 H 0.0 **** 0.06
32436 C 44.570756884777154 5.451239093583894 75.37940474279384 C 0.0 **** -0.24
32437 H 45.29018798956642 6.030129492907761 75.95893185724157 H 0.0 **** 0.06
32438 H 45.06868339187781 5.0162653720908 74.51217468457443 H 0.0 **** 0.06
32439 H 43.763263368528214 6.103709471281292 75.04671192969727 H 0.0 **** 0.06
32440 H 44.16182790722891 4.654527217787347 76.00081052195799 H 0.0 **** 0.06
32441 C 31.175957534783784 32.232342135986556 5.027015669179178 C 0.0 **** -0.24
32442 H 31.46816007780636 31.351409347645443 4.45645988492646 H 0.0 **** 0.06
32443 H 31.48806439969261 33.12997744628157 4.493026879132088 H 0.0 **** 0.06
32444 H 31.656796885597586 32.20574670648111 6.005491078109557 H 0.0 **** 0.06
32445 H 30.09347979093738 32.24064151082996 5.153656523609641 H 0.0 **** 0.06
32446 C 37.818416374943915 69.16304027499149 90.6448861139927 C 0.0 **** -0.24
32447 H 37.99393454108288 70.1569062852164 91.05665982850098 H 0.0 **** 0.06
32448 H 37.48432027339313 69.25318341187847 89.6104785760729 H 0.0 **** 0.06
32449 H 37.05228748102049 68.65706488782752 91.23241678681296 H 0.0 **** 0.06
32450 H 38.74321045360168 68.5872022463011 90.679575260317 H 0.0 **** 0.06
32451 C 46.0981822570771 28.480540597134564 10.294673487476771 C 0.0 **** -0.24
32452 H 46.24632765861202 29.529288862372738 10.034792857775727 H 0.0 **** 0.06
32453 H 46.10228470886989 27.87849196452487 9.385574747690129 H 0.0 **** 0.06
32454 H 45.14098271364247 28.364435184833212 10.803570785187048 H 0.0 **** 0.06
32455 H 46.90233474611716 28.151897234707974 10.95239845794731 H 0.0 **** 0.06
32456 C 96.90004903307727 49.68119814888894 28.079010299154476 C 0.0 **** -0.24
32457 H 97.69306721748708 50.20944265091293 28.609145009616213 H 0.0 **** 0.06
32458 H 96.00933261192422 50.3078980182533 28.040808615158426 H 0.0 **** 0.06
32459 H 96.67011150197024 48.7530723751924 28.602063003900895 H 0.0 **** 0.06
32460 H 97.22881096773465 49.45488455233681 27.065239833678817 H 0.0 **** 0.06
32461 C 18.678956290554687 31.94060097352994 55.87908875649549 C 0.0 **** -0.24
32462 H 19.202711388547463 31.282594381349853 55.18688090972853 H 0.0 **** 0.06
32463 H 17.83360853368299 32.404611521824904 55.370142505806825 H 0.0 **** 0.06
32464 H 19.360636982620633 32.71450692088709 56.23107860432549 H 0.0 **** 0.06
32465 H 18.31755128780304 31.360795829579104 56.72875769979106 H 0.0 **** 0.06
32466 C 44.967341145291 36.285052321487825 39.06244411675621 C 0.0 **** -0.24
32467 H 44.96454306914933 35.512760185219946 38.2937401080373 H 0.0 **** 0.06
32468 H 45.12864875838952 35.825185096148715 40.03846099758175 H 0.0 **** 0.06
32469 H 44.009244940112225 36.80355611718937 39.05923873007413 H 0.0 **** 0.06
32470 H 45.7675943574941 36.99648031366689 38.85910730097186 H 0.0 **** 0.06
32471 C 22.217305271546252 97.09282633267821 32.7377879793151 C 0.0 **** -0.24
32472 H 21.79089249008618 96.34216314448675 33.403721020310286 H 0.0 **** 0.06
32473 H 21.413370843678962 97.65011445672448 32.25769193718688 H 0.0 **** 0.06
32474 H 22.82299035334225 96.59987358822471 31.97740647407946 H 0.0 **** 0.06
32475 H 22.8419688868658 97.77559513239791 33.31348753859777 H 0.0 **** 0.06
32476 C 12.88835410910384 101.35797076093769 70.93169482841506 C 0.0 **** -0.24
32477 H 13.702233784447262 102.04082247032824 71.17721737982714 H 0.0 **** 0.06
32478 H 12.894977505869349 101.15640287781193 69.85929121397305 H 0.0 **** 0.06
32479 H 11.937726857723966 101.81143833214009 71.21035555108972 H 0.0 **** 0.06
32480 H 13.020172947976928 100.4241411813829 71.47878440429395 H 0.0 **** 0.06
32481 C 74.58280485356994 48.53736199686729 87.66339954378097 C 0.0 **** -0.24
32482 H 74.37686610302308 49.432999953584634 87.07766093031287 H 0.0 **** 0.06
32483 H 75.04772487035927 47.7850600635169 87.0252623303937 H 0.0 **** 0.06
32484 H 73.64935820640852 48.14559706206527 88.06715620588028 H 0.0 **** 0.06
32485 H 75.25711844936967 48.78664086939637 88.48301415233249 H 0.0 **** 0.06
32486 C 108.21130722880129 77.0485738075158 62.22121770138597 C 0.0 **** -0.24
32487 H 107.16545888233004 76.81676914561885 62.42061844893516 H 0.0 **** 0.06
32488 H 108.2731117201781 77.93064846905052 61.584397219903735 H 0.0 **** 0.06
32489 H 108.68190969261705 76.20261518606816 61.72016660791314 H 0.0 **** 0.06
32490 H 108.7249397281979 77.2436856573914 63.16338061566404 H 0.0 **** 0.06
32491 C 60.357004587440315 59.685764841001856 18.49036775243536 C 0.0 **** -0.24
32492 H 59.77288532640176 58.77125037764415 18.58973985143291 H 0.0 **** 0.06
32493 H 59.738199242013025 60.46570482365769 18.04435370227037 H 0.0 **** 0.06
32494 H 61.22062572704044 59.498114571932945 17.851971486839147 H 0.0 **** 0.06
32495 H 60.69646011127131 60.00942162261805 19.474443518103328 H 0.0 **** 0.06
32496 C 22.70140408625087 101.25949016952066 54.17713398830771 C 0.0 **** -0.24
32497 H 22.272936205855473 101.72723843252007 55.064142304786095 H 0.0 **** 0.06
32498 H 21.93528462068358 101.1756299712703 53.405493295180854 H 0.0 **** 0.06
32499 H 23.069959873672563 100.26628181831204 54.432783443032115 H 0.0 **** 0.06
32500 H 23.524885159553957 101.86930631890728 53.807616773868055 H 0.0 **** 0.06
32501 C 92.33350905094017 29.619819889873895 8.903708371763514 C 0.0 **** -0.24
32502 H 93.24050610392311 29.061213647903955 9.132212673707102 H 0.0 **** 0.06
32503 H 92.45977511064353 30.659179597104384 9.20929668710636 H 0.0 **** 0.06
32504 H 91.49177275968066 29.18264028757349 9.441271298566392 H 0.0 **** 0.06
32505 H 92.14084265720723 29.57706306863389 7.831868662313411 H 0.0 **** 0.06
32506 C 44.604581012772485 69.46296268202576 79.12185596481504 C 0.0 **** -0.24
32507 H 43.69383892784542 68.97414946111945 79.4683907706285 H 0.0 **** 0.06
32508 H 44.66788891343043 70.46152525968563 79.5559456147679 H 0.0 **** 0.06
32509 H 44.584509746454984 69.53959859200324 78.03533680697154 H 0.0 **** 0.06
32510 H 45.47066153950664 68.87636972398673 79.42946142814549 H 0.0 **** 0.06
32511 C 88.59596237136026 81.98105899964125 0.18024820290219168 C 0.0 **** -0.24
32512 H 89.38923940825151 82.56491548456229 -0.286949858253152 H 0.0 **** 0.06
32513 H 88.38570481503109 81.1020451825175 -0.4291353696992388 H 0.0 **** 0.06
32514 H 87.69607377426149 82.59113913173874 0.2621361648261882 H 0.0 **** 0.06
32515 H 88.91392708727176 81.66692652445028 1.1745233679073266 H 0.0 **** 0.06
32516 C 18.18617568936122 30.437517277412724 76.99370852728224 C 0.0 **** -0.24
32517 H 18.013068425823917 31.31118024484951 76.364852591306 H 0.0 **** 0.06
32518 H 17.277397837930778 30.204041227699975 77.54793283842224 H 0.0 **** 0.06
32519 H 18.996008806566806 30.647143897238664 77.69230200790685 H 0.0 **** 0.06
32520 H 18.458331060148623 29.588092313718164 76.36660998218166 H 0.0 **** 0.06
32521 C 22.05829102420259 20.774870999955027 28.69260533747604 C 0.0 **** -0.24
32522 H 22.275975255476425 20.604054587550806 29.74644220539983 H 0.0 **** 0.06
32523 H 21.03693096302777 21.140362733966725 28.586293159560142 H 0.0 **** 0.06
32524 H 22.16791852227854 19.83952923298071 28.14355027110389 H 0.0 **** 0.06
32525 H 22.753405287940723 21.513960930964757 28.292961559092646 H 0.0 **** 0.06
32526 C 39.45941023464766 101.24120338565683 54.2899124320125 C 0.0 **** -0.24
32527 H 39.031934149863176 102.07914707424942 54.83988552046554 H 0.0 **** 0.06
32528 H 40.0034034156122 100.59397825869712 54.97793999163184 H 0.0 **** 0.06
32529 H 40.14256455692035 101.61821202966462 53.52832162655301 H 0.0 **** 0.06
32530 H 38.66037926775341 100.67478809849155 53.81180879500653 H 0.0 **** 0.06
32531 C 55.80839727284288 82.04658593963718 23.029230792497827 C 0.0 **** -0.24
32532 H 55.824541297585995 81.35326777861962 22.188423352143076 H 0.0 **** 0.06
32533 H 55.56017850277263 83.04622039923916 22.67057033626108 H 0.0 **** 0.06
32534 H 56.78964492709733 82.06378754030929 23.50451287245707 H 0.0 **** 0.06
32535 H 55.059867166429314 81.72313182526896 23.752653204936564 H 0.0 **** 0.06
32536 C 88.95049010880291 109.14631424330533 45.085119476184246 C 0.0 **** -0.24
32537 H 89.55973008046603 108.47142760061821 45.68677350140019 H 0.0 **** 0.06
32538 H 88.02974456350618 108.64038291016126 44.791778252021395 H 0.0 **** 0.06
32539 H 89.50485262875026 109.4372567740577 44.19283728701311 H 0.0 **** 0.06
32540 H 88.7070124803858 110.03383084542239 45.66886322989595 H 0.0 **** 0.06
32541 C 3.272540320846794 61.28634921107121 65.95113787598974 C 0.0 **** -0.24
32542 H 3.582366137981147 61.72503384224774 65.00305318514232 H 0.0 **** 0.06
32543 H 3.720432686123619 61.84422542240637 66.77325003709292 H 0.0 **** 0.06
32544 H 3.5986323335299186 60.24799229860993 65.99545158482678 H 0.0 **** 0.06
32545 H 2.185359969961983 61.32939132591018 66.03249658660272 H 0.0 **** 0.06
32546 C 72.66602927507085 30.609939692389787 59.1531102256226 C 0.0 **** -0.24
32547 H 73.265602948646 30.489214132231467 60.055514584541584 H 0.0 **** 0.06
32548 H 72.97868902879793 29.87756507871788 58.40888232901244 H 0.0 **** 0.06
32549 H 72.80460925945096 31.615090078564492 58.75579030745515 H 0.0 **** 0.06
32550 H 71.61389998853667 30.457086694681635 59.395190440586816 H 0.0 **** 0.06
32551 C 42.556513502997774 82.707961298944 103.43170312915505 C 0.0 **** -0.24
32552 H 43.46781272969886 82.25731824050344 103.03739048356378 H 0.0 **** 0.06
32553 H 42.50055899917206 82.53272829215375 104.50653260371463 H 0.0 **** 0.06
32554 H 41.690011041876744 82.26057278042043 102.94464577430207 H 0.0 **** 0.06
32555 H 42.56865591760268 83.78033638457755 103.23775446729131 H 0.0 **** 0.06
32556 C 18.112350173927126 99.80432729637062 85.6700714686115 C 0.0 **** -0.24
32557 H 17.258624079863296 99.2207250182972 86.01526710200815 H 0.0 **** 0.06
32558 H 18.546602879204187 100.344849119368 86.51143502640485 H 0.0 **** 0.06
32559 H 17.782416599396427 100.51484839056465 84.91237729594613 H 0.0 **** 0.06
32560 H 18.85952600472308 99.13678406674826 85.2413149424408 H 0.0 **** 0.06
32561 C 78.43867209897832 18.425068501799018 87.62672793153033 C 0.0 **** -0.24
32562 H 78.35484896258077 17.400588298162802 87.98801702437514 H 0.0 **** 0.06
32563 H 77.71491475754414 18.58886331789037 86.82828793058172 H 0.0 **** 0.06
32564 H 79.44541365875043 18.595240769166367 87.24615381785604 H 0.0 **** 0.06
32565 H 78.23811329365566 19.116593786006604 88.44587497337012 H 0.0 **** 0.06
32566 C 75.46418066338867 99.34871401911222 41.1443693341277 C 0.0 **** -0.24
32567 H 76.34904144440884 99.97379739718593 41.02657287279459 H 0.0 **** 0.06
32568 H 75.62210621150916 98.6484795543489 41.96521531616355 H 0.0 **** 0.06
32569 H 75.28516945483466 98.79472079876652 40.22329478547732 H 0.0 **** 0.06
32570 H 74.60214048950127 99.9779727408031 41.3638004619898 H 0.0 **** 0.06
32571 C 86.30971360499791 37.49217185740906 67.09976008765622 C 0.0 **** -0.24
32572 H 86.1033630675894 36.86053058078636 66.23577130705195 H 0.0 **** 0.06
32573 H 85.37120783263495 37.87028949552507 67.50643794832601 H 0.0 **** 0.06
32574 H 86.93850676382024 38.32981680313213 66.79517010752072 H 0.0 **** 0.06
32575 H 86.82789971074719 36.90857017736465 67.86118844328375 H 0.0 **** 0.06
32576 C 86.69545528217355 20.525905566925758 46.341393860997165 C 0.0 **** -0.24
32577 H 86.44107876178163 19.541446925283424 45.94946070196323 H 0.0 **** 0.06
32578 H 87.6840740397866 20.48993393497932 46.80000469911429 H 0.0 **** 0.06
32579 H 85.95859327866577 20.820837244058453 47.088857963284674 H 0.0 **** 0.06
32580 H 86.6980791271996 21.251195670485117 45.52865086952105 H 0.0 **** 0.06
32581 C 14.537406946025627 88.67652106574032 69.33440365883479 C 0.0 **** -0.24
32582 H 13.866584569502322 88.90297327191658 70.163287614627 H 0.0 **** 0.06
32583 H 15.27959406893136 89.46996048259163 69.24058956854634 H 0.0 **** 0.06
32584 H 13.962607375332738 88.60592202968633 68.41081873739535 H 0.0 **** 0.06
32585 H 15.040564400398495 87.72803919183973 69.5234343306912 H 0.0 **** 0.06
32586 C 105.07476200655445 19.31014254929724 35.18295533586202 C 0.0 **** -0.24
32587 H 104.28938369716705 20.039859744679717 34.98410457230213 H 0.0 **** 0.06
32588 H 104.62860324089112 18.39141661386384 35.56311431786152 H 0.0 **** 0.06
32589 H 105.76446454099525 19.713554427539407 35.92414297628812 H 0.0 **** 0.06
32590 H 105.61591621093301 19.098092488707806 34.260481056880145 H 0.0 **** 0.06
32591 C 66.80140628223597 28.882580123049635 42.03548615971132 C 0.0 **** -0.24
32592 H 67.69963713931094 29.082401908545137 41.4506259372914 H 0.0 **** 0.06
32593 H 66.59622420085668 27.81120483002126 42.02980714846814 H 0.0 **** 0.06
32594 H 65.95739110586055 29.417065393555752 41.599344269278845 H 0.0 **** 0.06
32595 H 66.95372516921077 29.21807105816007 43.061340756603954 H 0.0 **** 0.06
32596 C 69.8941592026708 88.77582849651776 87.14949430242574 C 0.0 **** -0.24
32597 H 69.78074915271924 89.73592421897797 87.65439161888648 H 0.0 **** 0.06
32598 H 69.30400861406196 88.77715569335004 86.23241118459481 H 0.0 **** 0.06
32599 H 69.54654260064234 87.97799092401738 87.8047238043053 H 0.0 **** 0.06
32600 H 70.94474977652709 88.61653792519633 86.90691067493465 H 0.0 **** 0.06
32601 C 74.77581327003521 38.19334222462061 14.790715235253543 C 0.0 **** -0.24
32602 H 74.2196569159725 37.314568715911946 15.118471450877252 H 0.0 **** 0.06
32603 H 74.21255516101716 38.710392013139085 14.013501809086705 H 0.0 **** 0.06
32604 H 75.74273163848481 37.88341709184124 14.39358531494321 H 0.0 **** 0.06
32605 H 74.92840994372213 38.863703264224796 15.636726588648031 H 0.0 **** 0.06
32606 C 85.11943913244062 65.25010982318767 68.22890155410222 C 0.0 **** -0.24
32607 H 86.01417349010364 65.4625785747944 68.81389327412508 H 0.0 **** 0.06
32608 H 85.06164019308167 65.94290548669704 67.38913352953071 H 0.0 **** 0.06
32609 H 84.23742016016212 65.36802521717652 68.85981949308216 H 0.0 **** 0.06
32610 H 85.1644532950661 64.2276170443183 67.85488675347457 H 0.0 **** 0.06
32611 C 39.37055697060964 75.27650350974537 90.63127698204842 C 0.0 **** -0.24
32612 H 38.60703854903343 75.91014100170506 91.08166789304236 H 0.0 **** 0.06
32613 H 39.57238793553233 75.61763451262371 89.61499018439378 H 0.0 **** 0.06
32614 H 39.01872814758906 74.24548930207021 90.6044998296492 H 0.0 **** 0.06
32615 H 40.284363685823934 75.33373566812608 91.22196436753363 H 0.0 **** 0.06
32616 C 51.77242680504537 13.569994791180843 89.14684242823893 C 0.0 **** -0.24
32617 H 51.16870630452712 12.66799735332783 89.04217586821011 H 0.0 **** 0.06
32618 H 51.40033491619727 14.336564646545721 88.46587089379165 H 0.0 **** 0.06
32619 H 52.81062969707102 13.342284361779264 88.90611113160719 H 0.0 **** 0.06
32620 H 51.70727480428235 13.932958101938635 90.17205248606643 H 0.0 **** 0.06
32621 C 13.063373122100074 96.72480164449333 25.354912469495957 C 0.0 **** -0.24
32622 H 12.43456688955257 95.97909285346384 24.86879317469203 H 0.0 **** 0.06
32623 H 14.087977488147317 96.62719666390753 24.99551290869192 H 0.0 **** 0.06
32624 H 13.040017666110202 96.57144515104595 26.43456299235646 H 0.0 **** 0.06
32625 H 12.689369141207806 97.72152634243145 25.1226675099812 H 0.0 **** 0.06
32626 C 37.2340572093251 16.87818048482258 105.132812622353 C 0.0 **** -0.24
32627 H 37.65916502637879 16.17568176454445 105.85094551120746 H 0.0 **** 0.06
32628 H 36.955252740769254 16.344281490351875 104.22472024757577 H 0.0 **** 0.06
32629 H 37.97255165260276 17.643320431682042 104.89399957929697 H 0.0 **** 0.06
32630 H 36.35006283698385 17.3486370473737 105.56500761116662 H 0.0 **** 0.06
32631 C 92.73160818399589 42.18298934721835 27.888394479617673 C 0.0 **** -0.24
32632 H 92.90386553633124 43.232122521984735 28.128300377541436 H 0.0 **** 0.06
32633 H 93.22772939830224 41.93872219156805 26.949082943953258 H 0.0 **** 0.06
32634 H 91.66011260804397 42.0032417686981 27.79089580266529 H 0.0 **** 0.06
32635 H 93.1330986120134 41.557714022900754 28.685873049858998 H 0.0 **** 0.06
32636 C 102.759041877982 21.932328672544998 26.01391973050673 C 0.0 **** -0.24
32637 H 102.38079601262535 22.048729661414143 24.99770430136215 H 0.0 **** 0.06
32638 H 102.21075615995044 22.59708017954935 26.682715030070085 H 0.0 **** 0.06
32639 H 103.81898034979228 22.185411396401747 26.0384030932953 H 0.0 **** 0.06
32640 H 102.62378975821446 20.899835765458334 26.33496971077244 H 0.0 **** 0.06
32641 C 35.569304292669365 82.35656027225245 39.091980165647556 C 0.0 **** -0.24
32642 H 35.55359181667436 81.47482190657261 39.7334304666868 H 0.0 **** 0.06
32643 H 34.869357979999606 82.21937492004648 38.26772280052978 H 0.0 **** 0.06
32644 H 36.57485382724014 82.4977927390965 38.69469635372343 H 0.0 **** 0.06
32645 H 35.281549846368456 83.23320180737153 39.672649503194236 H 0.0 **** 0.06
32646 C 2.732666374577092 56.57433944222669 102.68129845174573 C 0.0 **** -0.24
32647 H 3.442346944751149 57.23514925643115 103.1803263093386 H 0.0 **** 0.06
32648 H 2.3843587074023365 57.0443963774093 101.76163106192921 H 0.0 **** 0.06
32649 H 1.8845584704556035 56.38923440577634 103.33960302637989 H 0.0 **** 0.06
32650 H 3.222033268003548 55.629586145871414 102.4446613610924 H 0.0 **** 0.06
32651 C 15.590011424582954 98.02528850493562 67.34832772251139 C 0.0 **** -0.24
32652 H 16.451370273016412 98.45953940369702 67.8562784834203 H 0.0 **** 0.06
32653 H 15.03418285041447 98.81340910945094 66.83842432947596 H 0.0 **** 0.06
32654 H 14.944378452042947 97.53805064532311 68.0787558022572 H 0.0 **** 0.06
32655 H 15.932754765334554 97.2908484783376 66.61860875223677 H 0.0 **** 0.06
32656 C 21.239183237893897 31.13526315295013 48.388214534788915 C 0.0 **** -0.24
32657 H 20.414739675137092 31.825825783376615 48.564157425356626 H 0.0 **** 0.06
32658 H 21.0682327103177 30.594985738823368 47.45676291118099 H 0.0 **** 0.06
32659 H 21.30078973768725 30.425691602168627 49.21435241703841 H 0.0 **** 0.06
32660 H 22.172728951107544 31.69415894432305 48.318473654112125 H 0.0 **** 0.06
32661 C 77.86032200174004 30.653083645139645 56.50804970852755 C 0.0 **** -0.24
32662 H 77.83173284095611 29.66719272122421 56.042628743828516 H 0.0 **** 0.06
32663 H 77.2046323818266 30.66320817730758 57.378353361097936 H 0.0 **** 0.06
32664 H 77.5248661788311 31.402566393584635 55.79151510161557 H 0.0 **** 0.06
32665 H 78.88048760627254 30.878702867148803 56.818529927248335 H 0.0 **** 0.06
32666 C 75.61734634048958 7.41069021804401 27.87815043713158 C 0.0 **** -0.24
32667 H 74.53164393939879 7.329311871052312 27.82537045057188 H 0.0 **** 0.06
32668 H 76.04444956504041 7.203165791025128 26.896292819285748 H 0.0 **** 0.06
32669 H 76.00116023788472 6.690085401296585 28.60099239928587 H 0.0 **** 0.06
32670 H 75.89223789107697 8.418518733274425 28.18847310297943 H 0.0 **** 0.06
32671 C 7.440509526185593 67.15820402452579 85.25326670037214 C 0.0 **** -0.24
32672 H 8.514376713030401 67.17159057320538 85.4409844504728 H 0.0 **** 0.06
32673 H 7.251900947187821 66.76996287880723 84.25206766430267 H 0.0 **** 0.06
32674 H 7.045376339068994 68.17113253978397 85.33085828711143 H 0.0 **** 0.06
32675 H 6.951308428718221 66.52008254892269 85.98953510046906 H 0.0 **** 0.06
32676 C 93.94400166846188 79.52966072400682 14.905265851426066 C 0.0 **** -0.24
32677 H 93.96643322705881 80.12793043219494 13.993527882643434 H 0.0 **** 0.06
32678 H 94.95866995728495 79.22834316374912 15.166629357363917 H 0.0 **** 0.06
32679 H 93.33258542113101 78.64235250951174 14.741928303493722 H 0.0 **** 0.06
32680 H 93.51951934774547 80.12028668459948 15.716431397702735 H 0.0 **** 0.06
32681 C 11.206812098830852 13.584529955254766 90.11677055615353 C 0.0 **** -0.24
32682 H 10.170770795949721 13.402768737573695 89.83381108616842 H 0.0 **** 0.06
32683 H 11.243293818824668 13.963537614495522 91.13915074352165 H 0.0 **** 0.06
32684 H 11.644775156051082 14.319002840970313 89.4417025978577 H 0.0 **** 0.06
32685 H 11.769189666677022 12.652202666566836 90.0544229413919 H 0.0 **** 0.06
32686 C 11.517181337642981 3.3582813155123183 50.87731289064817 C 0.0 **** -0.24
32687 H 11.618187639658743 2.2941029923550476 51.09085936239137 H 0.0 **** 0.06
32688 H 10.483497541096085 3.5770690681746995 50.60715246882211 H 0.0 **** 0.06
32689 H 12.174381204126107 3.626150323075967 50.04959830999576 H 0.0 **** 0.06
32690 H 11.79210643713175 3.933910193885888 51.760586573011096 H 0.0 **** 0.06
32691 C 57.30522587943972 67.46597014629782 65.7399220256416 C 0.0 **** -0.24
32692 H 57.91150002443118 66.88798903560345 66.43798606340816 H 0.0 **** 0.06
32693 H 57.38115684159072 68.52605626123072 65.98561466074078 H 0.0 **** 0.06
32694 H 56.26536515715358 67.14830955435481 65.81364629353442 H 0.0 **** 0.06
32695 H 57.66517868024988 67.30125369757253 64.72481794819547 H 0.0 **** 0.06
32696 C 39.6650335136139 103.12621047217962 20.91864029318768 C 0.0 **** -0.24
32697 H 39.02805234845511 102.9919024079395 20.04349614525802 H 0.0 **** 0.06
32698 H 39.83879327207423 104.1895604949296 21.0810905896557 H 0.0 **** 0.06
32699 H 40.617676793489196 102.62143978682423 20.75539127184652 H 0.0 **** 0.06
32700 H 39.17396354085718 102.69987170925756 21.793165527194645 H 0.0 **** 0.06
32701 C 31.10830526946762 9.262735267848242 63.27423383587194 C 0.0 **** -0.24
32702 H 30.379325545335675 8.607763659023362 62.7960302546486 H 0.0 **** 0.06
32703 H 31.193279735009668 9.003378752479918 64.32939561925139 H 0.0 **** 0.06
32704 H 30.783278918581203 10.298901314415957 63.1792092660271 H 0.0 **** 0.06
32705 H 32.07836629359517 9.139953100320227 62.79055407805026 H 0.0 **** 0.06
32706 C 101.30829885847172 36.69355615017491 70.01380762275483 C 0.0 **** -0.24
32707 H 101.97366069161475 36.25261105946839 69.27051360506152 H 0.0 **** 0.06
32708 H 101.12554743441476 37.73803875272728 69.7630929870005 H 0.0 **** 0.06
32709 H 101.77291878199203 36.631977473373155 70.99784992450168 H 0.0 **** 0.06
32710 H 100.36395460510657 36.150827062787386 70.02349522033956 H 0.0 **** 0.06
32711 C 72.3439689400526 85.92606377669637 75.37931504581331 C 0.0 **** -0.24
32712 H 72.47826511293334 85.06760262657443 76.03771072738415 H 0.0 **** 0.06
32713 H 71.9615233718228 85.5884088968051 74.41598517419811 H 0.0 **** 0.06
32714 H 73.3009556907781 86.42722451130379 75.23571102133037 H 0.0 **** 0.06
32715 H 71.6338722828566 86.62001745057341 75.8294060516891 H 0.0 **** 0.06
32716 C 68.35760879983656 91.87742589801178 79.03229853849194 C 0.0 **** -0.24
32717 H 68.13644032352562 90.81427736366243 79.12827550269026 H 0.0 **** 0.06
32718 H 67.42560407905955 92.44270490159835 79.02191967908266 H 0.0 **** 0.06
32719 H 68.89946617758179 92.05248134336904 78.10350417071021 H 0.0 **** 0.06
32720 H 68.96887603080006 92.19804663363442 79.87592735625793 H 0.0 **** 0.06
32721 C 67.7195745963852 12.421321905818274 33.251026342268446 C 0.0 **** -0.24
32722 H 68.54097037599496 13.05579937256607 32.91692573006111 H 0.0 **** 0.06
32723 H 66.91887911102992 12.446404012354094 32.51193670919852 H 0.0 **** 0.06
32724 H 67.3437908775698 12.78761509007495 34.20634396425555 H 0.0 **** 0.06
32725 H 68.07535484801076 11.398222672929961 33.367933056686 H 0.0 **** 0.06
32726 C 93.75334377425806 105.29713748960165 60.40898245412123 C 0.0 **** -0.24
32727 H 93.02506760166293 104.57589766224729 60.03693025958118 H 0.0 **** 0.06
32728 H 93.83176343604362 106.1285243565992 59.70712692116713 H 0.0 **** 0.06
32729 H 94.72479620195348 104.8131625015752 60.509288239494154 H 0.0 **** 0.06
32730 H 93.43102997936455 105.67100009388959 61.38024265598936 H 0.0 **** 0.06
32731 C 20.59484640765723 49.58869816533155 33.9868826981251 C 0.0 **** -0.24
32732 H 20.19585759111291 50.297932669535896 33.261313795079275 H 0.0 **** 0.06
32733 H 21.26259342064435 50.10885547736035 34.67307736554636 H 0.0 **** 0.06
32734 H 21.146436150259575 48.80720379743974 33.46389398703525 H 0.0 **** 0.06
32735 H 19.772827178110816 49.14193395405482 34.546095524926585 H 0.0 **** 0.06
32736 C 12.527267671103502 74.67539279719372 85.81093799060113 C 0.0 **** -0.24
32737 H 12.514387785922537 74.77611651066587 86.89677995328661 H 0.0 **** 0.06
32738 H 13.44255491764092 74.16989215260395 85.50331775633454 H 0.0 **** 0.06
32739 H 12.487042636310491 75.66498242516809 85.35518125313574 H 0.0 **** 0.06
32740 H 11.663462674029944 74.09305242852943 85.49076542791819 H 0.0 **** 0.06
32741 C 11.322831870929292 78.97149262937148 7.274933686785204 C 0.0 **** -0.24
32742 H 10.641636012596393 78.1359922668927 7.439385081640211 H 0.0 **** 0.06
32743 H 11.944169198185648 79.11233086895918 8.159646298086557 H 0.0 **** 0.06
32744 H 10.747441848246922 79.87808971149138 7.086301931307403 H 0.0 **** 0.06
32745 H 11.958222280789755 78.75836776121476 6.415152497144518 H 0.0 **** 0.06
32746 C 55.22363529969158 105.16402041520085 70.1704537636168 C 0.0 **** -0.24
32747 H 54.452754525542446 105.28369226397416 70.93153413393603 H 0.0 **** 0.06
32748 H 55.11415193306118 104.18990490299183 69.69348705762259 H 0.0 **** 0.06
32749 H 56.20689734644475 105.23399178195753 70.63565116139102 H 0.0 **** 0.06
32750 H 55.11881441206714 105.94944100435531 69.42177762724701 H 0.0 **** 0.06
32751 C 96.9165622891893 53.418702036398486 49.673106092203696 C 0.0 **** -0.24
32752 H 96.6570825591773 52.38653265248888 49.4361598264722 H 0.0 **** 0.06
32753 H 96.15113084701468 54.08548255026278 49.27658207314922 H 0.0 **** 0.06
32754 H 97.87906835632396 53.66300748416495 49.22566370112531 H 0.0 **** 0.06
32755 H 96.97799192084449 53.53787973280913 50.75520912845287 H 0.0 **** 0.06
32756 C 77.65974930699058 74.25579820464179 16.879273406433327 C 0.0 **** -0.24
32757 H 77.08450459785956 74.68977768097284 17.69793039719994 H 0.0 **** 0.06
32758 H 78.58804391370488 74.81230813983166 16.75266121539852 H 0.0 **** 0.06
32759 H 77.07680149519899 74.30603507301231 15.959343520574151 H 0.0 **** 0.06
32760 H 77.888230338425 73.2145605949928 17.108811136749978 H 0.0 **** 0.06
32761 C 71.00549099064304 8.340027074598481 85.11156496864737 C 0.0 **** -0.24
32762 H 71.00455147483703 9.417706607628531 84.94913101685762 H 0.0 **** 0.06
32763 H 72.03056570513446 7.994166289492682 85.2495869850984 H 0.0 **** 0.06
32764 H 70.56738514502078 7.842092618569609 84.24554793880179 H 0.0 **** 0.06
32765 H 70.41944642147904 8.105697420931278 85.99980266271797 H 0.0 **** 0.06
32766 C 65.21338125320932 59.57380329294955 69.13553947969098 C 0.0 **** -0.24
32767 H 64.55702735015205 58.80376401929905 69.53867077816017 H 0.0 **** 0.06
32768 H 66.25054474104809 59.24654314056596 69.21784153759369 H 0.0 **** 0.06
32769 H 65.07883710621627 60.49773079628213 69.69794742919942 H 0.0 **** 0.06
32770 H 64.96851479720357 59.74717169484529 68.0874909621585 H 0.0 **** 0.06
32771 C 45.63997388248515 45.421001898646125 12.458833704221405 C 0.0 **** -0.24
32772 H 44.81994306774823 45.743977569712456 11.817129672616574 H 0.0 **** 0.06
32773 H 46.14186836839605 46.295843386913646 12.875053930528054 H 0.0 **** 0.06
32774 H 46.35096101180716 44.83856856698014 11.872568750424989 H 0.0 **** 0.06
32775 H 45.24711419687645 44.80752225130351 13.269041581873068 H 0.0 **** 0.06
32776 C 69.01019818972928 26.04438968827417 69.49434999502706 C 0.0 **** -0.24
32777 H 69.70913052172274 26.37173491524515 68.72479392177807 H 0.0 **** 0.06
32778 H 68.48256872838918 25.154198392496877 69.15119041695102 H 0.0 **** 0.06
32779 H 68.29039176460094 26.839269392559064 69.6924027222748 H 0.0 **** 0.06
32780 H 69.5576077614635 25.814196122339677 70.40836670430467 H 0.0 **** 0.06
32781 C 77.48888017383825 84.86965939626279 15.11841464803716 C 0.0 **** -0.24
32782 H 78.44051404650966 85.22957853434643 15.507207601790498 H 0.0 **** 0.06
32783 H 76.67645468313775 85.24454219194187 15.74170400493962 H 0.0 **** 0.06
32784 H 77.48096164665976 83.77942628204897 15.128995320968272 H 0.0 **** 0.06
32785 H 77.3559297098572 85.22364806561522 14.096153891482075 H 0.0 **** 0.06
32786 C 41.92922692275259 9.99498050373677 31.655027608991816 C 0.0 **** -0.24
32787 H 42.919866621224315 9.64945156087289 31.36033866140059 H 0.0 **** 0.06
32788 H 41.494131383637296 10.58169410820554 30.8460734237363 H 0.0 **** 0.06
32789 H 42.01189359199907 10.612324924321271 32.54927250144891 H 0.0 **** 0.06
32790 H 41.292996966068 9.135414231789014 31.86440071812561 H 0.0 **** 0.06
32791 C 28.74005172086595 106.24838079493259 22.208978197651902 C 0.0 **** -0.24
32792 H 28.219801830365896 107.15399802756394 22.518986719367433 H 0.0 **** 0.06
32793 H 28.034028194065343 105.41817764344972 22.174650235787396 H 0.0 **** 0.06
32794 H 29.532226155641695 106.02230984167295 22.923283798130797 H 0.0 **** 0.06
32795 H 29.17245483496953 106.39860644243794 21.219960682676515 H 0.0 **** 0.06
32796 C 39.34041798472826 2.9114409861041395 13.457339972650317 C 0.0 **** -0.24
32797 H 40.211736553823684 2.296292085809057 13.683728316592095 H 0.0 **** 0.06
32798 H 39.16174749203858 2.9061693695204838 12.382185137830007 H 0.0 **** 0.06
32799 H 39.520254953733776 3.933318745715553 13.791222242113975 H 0.0 **** 0.06
32800 H 38.468344745814974 2.5091346983248854 13.972555234038083 H 0.0 **** 0.06
32801 C 29.866196784543263 70.53868829347226 10.950677479896399 C 0.0 **** -0.24
32802 H 30.064124491529952 70.6434711624376 9.884095547208403 H 0.0 **** 0.06
32803 H 30.45778929156441 69.71479629317201 11.351103741853763 H 0.0 **** 0.06
32804 H 28.80712947282001 70.33383915156699 11.105500264384375 H 0.0 **** 0.06
32805 H 30.13582083738254 71.46245492801967 11.463730104828471 H 0.0 **** 0.06
32806 C 77.20316519359682 105.61080610301194 97.10825072958912 C 0.0 **** -0.24
32807 H 76.83676075937456 104.80017313323678 96.47813180561701 H 0.0 **** 0.06
32808 H 77.848382185204 106.26352166470818 96.52143370278458 H 0.0 **** 0.06
32809 H 77.7694994696974 105.19499281186879 97.94255387410458 H 0.0 **** 0.06
32810 H 76.35849962825125 106.18207971276593 97.49253627244201 H 0.0 **** 0.06
32811 C 0.8398377624185116 18.329985906092485 36.5707206493399 C 0.0 **** -0.24
32812 H 1.2680539191955518 17.377280687209417 36.26151444127054 H 0.0 **** 0.06
32813 H 1.3373504098387201 19.14232549051395 36.03951023649901 H 0.0 **** 0.06
32814 H 0.977869573655596 18.459774302597577 37.64406264867374 H 0.0 **** 0.06
32815 H -0.2249530256028578 18.341524069154794 36.33791963519802 H 0.0 **** 0.06
32816 C 24.55545052525551 102.32520622758187 14.608911827666702 C 0.0 **** -0.24
32817 H 24.92874743419503 101.5607908799141 15.290209445996084 H 0.0 **** 0.06
32818 H 25.31367516155359 103.09729272774746 14.479228800668636 H 0.0 **** 0.06
32819 H 23.650219885851357 102.77007359637275 15.022378134609909 H 0.0 **** 0.06
32820 H 24.329044965458422 101.87202828626698 13.643070635998129 H 0.0 **** 0.06
32821 C 45.16699826021505 94.89342017793382 70.06814991943139 C 0.0 **** -0.24
32822 H 45.08532205015513 93.93033454503194 70.57235120826627 H 0.0 **** 0.06
32823 H 44.40046092298701 94.96469463349615 69.29566665764784 H 0.0 **** 0.06
32824 H 46.15252352790296 94.98140609096217 69.61187451584078 H 0.0 **** 0.06
32825 H 45.02781745877951 95.69604947961108 70.79243078703132 H 0.0 **** 0.06
32826 C 83.20673937256228 1.6297871092569807 19.930194857319638 C 0.0 **** -0.24
32827 H 83.1047373226518 1.5307274558703199 18.849614171397157 H 0.0 **** 0.06
32828 H 83.82952604747857 0.8195371633244832 20.311578825496664 H 0.0 **** 0.06
32829 H 82.22149250843802 1.5794096322719895 20.393530136867472 H 0.0 **** 0.06
32830 H 83.67074751188261 2.587336321573048 20.16558345444942 H 0.0 **** 0.06
32831 C 20.082294312366344 76.19831144664886 87.20587042127886 C 0.0 **** -0.24
32832 H 21.038534429329076 76.70346113242499 87.3441510282072 H 0.0 **** 0.06
32833 H 19.742242151209183 76.33927931393674 86.17957344397621 H 0.0 **** 0.06
32834 H 19.3475971538939 76.61801642006225 87.89312851803288 H 0.0 **** 0.06
32835 H 20.200729481027054 75.13390086803452 87.40659673725781 H 0.0 **** 0.06
32836 C 90.56277643344151 104.50441216598 22.60851038704493 C 0.0 **** -0.24
32837 H 90.09133772572548 105.2490162629901 21.966377851999596 H 0.0 **** 0.06
32838 H 90.33587822910621 103.50580636992726 22.23502874576812 H 0.0 **** 0.06
32839 H 90.1815867338729 104.60749949006748 23.62423439304723 H 0.0 **** 0.06
32840 H 91.64213043337111 104.65670724294387 22.608653472884953 H 0.0 **** 0.06
32841 C 93.29195670471728 19.466830464598473 76.7717672080083 C 0.0 **** -0.24
32842 H 92.54010514748298 18.682631585111366 76.68492136075014 H 0.0 **** 0.06
32843 H 94.17578176494631 19.187998462168053 76.19755569127466 H 0.0 **** 0.06
32844 H 93.56496023446955 19.59405559459384 77.81985058090552 H 0.0 **** 0.06
32845 H 92.8866735441468 20.401901175652597 76.38534621994879 H 0.0 **** 0.06
32846 C 90.04954283612557 21.02340275581176 50.229034807174145 C 0.0 **** -0.24
32847 H 90.60187878315963 20.298183695176334 50.82787974107643 H 0.0 **** 0.06
32848 H 88.97917905032136 20.85097296278238 50.3476655969705 H 0.0 **** 0.06
32849 H 90.32300632065258 20.910997901054657 49.18013981262715 H 0.0 **** 0.06
32850 H 90.29511913803339 22.031487508429848 50.56330009613038 H 0.0 **** 0.06
32851 C 77.36257452837759 90.84351633964441 63.24877209832198 C 0.0 **** -0.24
32852 H 76.4892690864178 91.41101420169996 63.56929762421572 H 0.0 **** 0.06
32853 H 77.95742307709409 91.44712619608117 62.56336185444741 H 0.0 **** 0.06
32854 H 77.03842692871311 89.93265116629944 62.74359101719574 H 0.0 **** 0.06
32855 H 77.96430996656329 90.5810221852244 64.11841921276044 H 0.0 **** 0.06
32856 C 40.92550977250676 66.24562462850929 78.66716354428321 C 0.0 **** -0.24
32857 H 41.84252040116458 66.49503449155276 78.13298463396202 H 0.0 **** 0.06
32858 H 40.828223506797215 66.89145165707157 79.54106674378632 H 0.0 **** 0.06
32859 H 40.963152963326756 65.20422515998638 78.98694316332596 H 0.0 **** 0.06
32860 H 40.07064414812091 66.3933139577934 78.00829980985834 H 0.0 **** 0.06
32861 C 5.670587535146019 7.226895693876656 9.92425353982002 C 0.0 **** -0.24
32862 H 5.962785982134928 6.194757805028132 9.732015961317083 H 0.0 **** 0.06
32863 H 6.014208982390226 7.860622310136435 9.107223126288142 H 0.0 **** 0.06
32864 H 6.118250427173161 7.562666980948592 10.85922541227735 H 0.0 **** 0.06
32865 H 4.584753229073405 7.287854313259928 9.999352036127721 H 0.0 **** 0.06
32866 C 50.25299798904928 20.236321308787627 88.67332027788433 C 0.0 **** -0.24
32867 H 50.48670340817284 19.47075470250541 87.93257911092675 H 0.0 **** 0.06
32868 H 49.826038117081225 19.766659287572164 89.55924561275785 H 0.0 **** 0.06
32869 H 49.53511809900101 20.941562781742913 88.25305862988594 H 0.0 **** 0.06
32870 H 51.165095136803416 20.766877561197468 88.94707515331862 H 0.0 **** 0.06
32871 C 61.36838965460461 30.67141368183664 41.78528014356246 C 0.0 **** -0.24
32872 H 60.4452099017024 30.298671995227693 41.338865806689824 H 0.0 **** 0.06
32873 H 61.52766707382163 30.184565391067792 42.747902787660706 H 0.0 **** 0.06
32874 H 61.29096475044493 31.748612209056944 41.931408719824105 H 0.0 **** 0.06
32875 H 62.205327442205316 30.45263231254779 41.12354180963601 H 0.0 **** 0.06
32876 C 20.95053101249195 7.091906586527541 39.049371522087206 C 0.0 **** -0.24
32877 H 21.23279490554654 7.832900500230204 39.79742231506966 H 0.0 **** 0.06
32878 H 20.785447152918834 7.586911766652165 38.09261134680698 H 0.0 **** 0.06
32879 H 20.03418207561566 6.5909076411019285 39.36276039521743 H 0.0 **** 0.06
32880 H 21.749263894443374 6.356968136747744 38.9466429994161 H 0.0 **** 0.06
32881 C 63.877380421156744 6.675073360397427 32.35590578964303 C 0.0 **** -0.24
32882 H 63.113380355930715 6.784072452545001 33.12577329124207 H 0.0 **** 0.06
32883 H 64.8409065570499 6.994811075870997 32.754650215146285 H 0.0 **** 0.06
32884 H 63.616707143343575 7.291698470236179 31.495508906112946 H 0.0 **** 0.06
32885 H 63.938709019063865 5.630865615925197 32.04959737394188 H 0.0 **** 0.06
32886 C 62.14843139817759 81.93452798690377 26.71437837373685 C 0.0 **** -0.24
32887 H 62.92352517952693 81.87295984388953 27.479199220104334 H 0.0 **** 0.06
32888 H 62.35000268443764 81.20140087051345 25.93357782691058 H 0.0 **** 0.06
32889 H 62.14430883484175 82.93490198730652 26.282355581800573 H 0.0 **** 0.06
32890 H 61.17749173813502 81.72954691312708 27.164819020502847 H 0.0 **** 0.06
32891 C 107.15789362370559 63.42840522164394 54.851830017254485 C 0.0 **** -0.24
32892 H 107.48327375078601 64.27540497502542 54.24882173006603 H 0.0 **** 0.06
32893 H 106.19676367931876 63.06839691116912 54.4837904191653 H 0.0 **** 0.06
32894 H 107.05584069088275 63.74013749948844 55.891684376357205 H 0.0 **** 0.06
32895 H 107.89519375476132 62.628856296156016 54.782765743593245 H 0.0 **** 0.06
32896 C 20.35323538207524 25.12825448888546 52.401130285737054 C 0.0 **** -0.24
32897 H 20.792104162075873 24.336757381020846 51.79305264131108 H 0.0 **** 0.06
32898 H 20.00341665451583 25.932412197266643 51.7524476307247 H 0.0 **** 0.06
32899 H 21.1041678008431 25.516612413664575 53.089597073627885 H 0.0 **** 0.06
32900 H 19.513324810519435 24.72678470972855 52.96701724421587 H 0.0 **** 0.06
32901 C 30.689634873064904 42.22362028895964 4.808371702356737 C 0.0 **** -0.24
32902 H 31.322328179499323 42.58386441014804 5.620198203415782 H 0.0 **** 0.06
32903 H 29.644625034486978 42.41496243880266 5.049331063548735 H 0.0 **** 0.06
32904 H 30.843075936726166 41.151761171311165 4.677368615284564 H 0.0 **** 0.06
32905 H 30.951855997381585 42.74303515945786 3.886855495320802 H 0.0 **** 0.06
32906 C 104.93297476784298 2.6312026759422444 69.12063875912642 C 0.0 **** -0.24
32907 H 103.87234460454914 2.540637019021606 69.35519873977611 H 0.0 **** 0.06
32908 H 105.40482157575943 3.3089980610711365 69.83326836663434 H 0.0 **** 0.06
32909 H 105.05025133293321 3.0254685164736657 68.11190467608667 H 0.0 **** 0.06
32910 H 105.40473855015998 1.6504181364212283 69.185086500203 H 0.0 **** 0.06
32911 C 99.63970901242229 86.59784090934465 90.65282048034291 C 0.0 **** -0.24
32912 H 98.8648596417647 86.27161232778599 91.34618344608128 H 0.0 **** 0.06
32913 H 100.43443075180832 87.0978032067504 91.20649450115394 H 0.0 **** 0.06
32914 H 99.21160917213177 87.2893742773673 89.92758330603567 H 0.0 **** 0.06
32915 H 100.04881403419436 85.73214738515003 90.13204446171811 H 0.0 **** 0.06
32916 C 83.74950456307528 60.130394376697836 28.751887389332012 C 0.0 **** -0.24
32917 H 83.66120761448481 59.103359163737764 28.39762875039611 H 0.0 **** 0.06
32918 H 83.03269025943628 60.3017302356931 29.554903040742374 H 0.0 **** 0.06
32919 H 83.54598904478456 60.81732742487236 27.93035206441425 H 0.0 **** 0.06
32920 H 84.76025563259532 60.29985885529476 29.124678200725384 H 0.0 **** 0.06
32921 C 0.07212628429817425 76.82600265505681 49.66021245722737 C 0.0 **** -0.24
32922 H -0.14287520303278267 77.6418088244186 50.35033818103081 H 0.0 **** 0.06
32923 H 0.37431165334711736 75.94324192304009 50.22494197248846 H 0.0 **** 0.06
32924 H 0.8771908472453713 77.12265769150684 48.98845009801481 H 0.0 **** 0.06
32925 H -0.8211228513946898 76.59792017221298 49.07829472437924 H 0.0 **** 0.06
32926 C 21.336606218343036 96.32256169827497 60.29727446620353 C 0.0 **** -0.24
32927 H 20.52004597151904 96.53924453852112 59.60844518503109 H 0.0 **** 0.06
32928 H 22.28546371647991 96.58604745488998 59.82955062850726 H 0.0 **** 0.06
32929 H 21.33392939626316 95.25978848320729 60.5405229381461 H 0.0 **** 0.06
32930 H 21.206799267776773 96.90466635711653 61.208931266333224 H 0.0 **** 0.06
32931 C 102.81960713201164 48.39123506868248 66.87813447202933 C 0.0 **** -0.24
32932 H 103.15934853723508 48.25049597599491 67.90467682098512 H 0.0 **** 0.06
32933 H 101.96030542371176 49.06362466505715 66.8694862944431 H 0.0 **** 0.06
32934 H 102.53160272073006 47.428503300403065 66.45567397310526 H 0.0 **** 0.06
32935 H 103.62499623660983 48.82348939118344 66.28491240586129 H 0.0 **** 0.06
32936 C 32.82507346983195 45.26282675126936 99.9400880549449 C 0.0 **** -0.24
32937 H 32.031202076638635 44.61237707843529 100.30877403807969 H 0.0 **** 0.06
32938 H 33.70095450352713 45.16591360882998 100.58172668280595 H 0.0 **** 0.06
32939 H 32.480628603189004 46.29628264841557 99.94805286289943 H 0.0 **** 0.06
32940 H 33.08610706169907 44.97411677496109 98.92136535687705 H 0.0 **** 0.06
32941 C 11.63720391710622 30.848497530451823 49.493238399251766 C 0.0 **** -0.24
32942 H 11.382277884077848 30.146109039126998 50.288018924253066 H 0.0 **** 0.06
32943 H 10.798551701122925 31.52422088318403 49.32306991248885 H 0.0 **** 0.06
32944 H 11.851830925520783 30.29752545042163 48.57761955268688 H 0.0 **** 0.06
32945 H 12.515435845343173 31.42445958908337 49.78554007300167 H 0.0 **** 0.06
32946 C 8.322817791258842 33.18714583555785 57.342057397758424 C 0.0 **** -0.24
32947 H 7.314861308839426 33.31179830550926 56.9484404866858 H 0.0 **** 0.06
32948 H 9.042073806178252 33.60431814453909 56.637416423949276 H 0.0 **** 0.06
32949 H 8.528220799993449 32.126597866907986 57.485690429404144 H 0.0 **** 0.06
32950 H 8.406943252185187 33.70536952954581 58.2977142468913 H 0.0 **** 0.06
32951 C 13.899500457480713 17.087970972756935 0.41905273816106536 C 0.0 **** -0.24
32952 H 13.641329031209466 17.632774608725796 -0.48839660919849415 H 0.0 **** 0.06
32953 H 14.983472987349899 16.99588977480225 0.49228188015544294 H 0.0 **** 0.06
32954 H 13.452555732963702 16.09355243600659 0.38600534100627826 H 0.0 **** 0.06
32955 H 13.521095955319197 17.627535151829292 1.2874388321095855 H 0.0 **** 0.06
32956 C 100.98030210795287 86.44589546061087 72.47049964249061 C 0.0 **** -0.24
32957 H 100.50410719832925 85.80914866314856 71.72475384175823 H 0.0 **** 0.06
32958 H 100.91276942164822 85.97269335181598 73.44946230864838 H 0.0 **** 0.06
32959 H 100.47699645286588 87.41218893893223 72.49770586709246 H 0.0 **** 0.06
32960 H 102.02841947212832 86.59035833064912 72.20803375213342 H 0.0 **** 0.06
32961 C 53.0575589162824 48.51286179547887 30.45629580330626 C 0.0 **** -0.24
32962 H 53.090851687261306 47.43024674296107 30.338962752790792 H 0.0 **** 0.06
32963 H 52.78271753606034 48.75851089037149 31.48207628734906 H 0.0 **** 0.06
32964 H 52.31697169257472 48.92942019103006 29.772302662668636 H 0.0 **** 0.06
32965 H 54.03713628357325 48.932902270840586 30.230019424722286 H 0.0 **** 0.06
32966 C 18.568701278604998 48.45982720684634 18.04568794421869 C 0.0 **** -0.24
32967 H 19.54468312653523 48.33185984734132 17.578619855466748 H 0.0 **** 0.06
32968 H 18.27999155313821 47.53367991573367 18.543051766050553 H 0.0 **** 0.06
32969 H 17.831115654468885 48.70763894920668 17.28177911771605 H 0.0 **** 0.06
32970 H 18.618122956663072 49.26566015943558 18.777305031618855 H 0.0 **** 0.06
32971 C 40.62174696914401 49.21095276233472 82.11063608890896 C 0.0 **** -0.24
32972 H 41.0598693913282 49.72033122245846 82.96833658419267 H 0.0 **** 0.06
32973 H 39.534628171296035 49.26826730216265 82.16972628320549 H 0.0 **** 0.06
32974 H 40.930991175641246 48.165432588056014 82.11221126543121 H 0.0 **** 0.06
32975 H 40.961203504508966 49.68900297003695 81.19171436934971 H 0.0 **** 0.06
32976 C 40.98344364283588 91.8211581969648 0.17994023382642865 C 0.0 **** -0.24
32977 H 40.50059867497663 91.93088703753358 1.150810547185145 H 0.0 **** 0.06
32978 H 40.42383564522754 91.10639171181344 -0.4246502865637325 H 0.0 **** 0.06
32979 H 42.003031387984095 91.46046029609329 0.3195388350904409 H 0.0 **** 0.06
32980 H 41.00542191768221 92.78651574372907 -0.3262036679675475 H 0.0 **** 0.06
32981 C 77.4246480322729 45.274600412116285 67.40796296058402 C 0.0 **** -0.24
32982 H 76.99203597786175 46.01618320309467 66.73633684311426 H 0.0 **** 0.06
32983 H 77.4811443447768 44.3119836601696 66.89900514656536 H 0.0 **** 0.06
32984 H 76.79836273038791 45.18007147228823 68.29588127671045 H 0.0 **** 0.06
32985 H 78.42545995210895 45.5906987254302 67.70210785489871 H 0.0 **** 0.06
32986 C 41.11293079738445 9.571390496214491 4.497893657055911 C 0.0 **** -0.24
32987 H 40.081453645777 9.273527192443524 4.688841954147733 H 0.0 **** 0.06
32988 H 41.16525335483868 10.656084427547896 4.404671969606866 H 0.0 **** 0.06
32989 H 41.458995320106965 9.109047442106686 3.57448149767761 H 0.0 **** 0.06
32990 H 41.743282270909134 9.246269066173141 5.326048822345939 H 0.0 **** 0.06
32991 C 87.26354359202999 85.44497417064608 10.183925725838378 C 0.0 **** -0.24
32992 H 86.62641901055758 85.89262241756094 9.420751951280323 H 0.0 **** 0.06
32993 H 88.03623633155296 86.15690405531478 10.474942318205848 H 0.0 **** 0.06
32994 H 87.73012149296282 84.54484651208648 9.783834337772504 H 0.0 **** 0.06
32995 H 86.6603315077708 85.18546217459715 11.053969732122852 H 0.0 **** 0.06
32996 C 94.19509234634728 8.193284083192538 73.02827767807946 C 0.0 **** -0.24
32997 H 93.56602798953453 7.315981598529561 72.8737936807745 H 0.0 **** 0.06
32998 H 93.82604091619893 8.75706575068429 73.88555486765205 H 0.0 **** 0.06
32999 H 94.16630578460354 8.822825636146746 72.13982252946903 H 0.0 **** 0.06
33000 H 95.22073416488468 7.875956458913123 73.21721130063472 H 0.0 **** 0.06
33001 C 102.44515035503633 97.31742996799164 87.95684159816084 C 0.0 **** -0.24
33002 H 102.50632901848684 98.35655611576959 87.63441043803526 H 0.0 **** 0.06
33003 H 103.45064883573104 96.92814365860062 88.1214165504942 H 0.0 **** 0.06
33004 H 101.9478132080823 96.72717232109443 87.18671136706388 H 0.0 **** 0.06
33005 H 101.8755387851578 97.25821131883185 88.88348856538454 H 0.0 **** 0.06
33006 C 70.05738055087505 80.07884371655797 30.174558330692093 C 0.0 **** -0.24
33007 H 70.35940879817713 79.69003764467095 29.201422829791596 H 0.0 **** 0.06
33008 H 70.91800544122941 80.090700877274 30.84380275462695 H 0.0 **** 0.06
33009 H 69.27844720046846 79.44326521035435 30.594566201960816 H 0.0 **** 0.06
33010 H 69.67476531477769 81.09312524820388 30.056272781955585 H 0.0 **** 0.06
33011 C 42.06282579197608 82.0953769797586 29.756702392792647 C 0.0 **** -0.24
33012 H 42.048791029493884 81.00911141825125 29.666919181574627 H 0.0 **** 0.06
33013 H 43.05113951214287 82.42021627934015 30.081430378951552 H 0.0 **** 0.06
33014 H 41.31716977295349 82.40869914325809 30.48803763205484 H 0.0 **** 0.06
33015 H 41.833025376413275 82.5415269764148 28.788474179334344 H 0.0 **** 0.06
33016 C 58.59145444415851 42.44971478650642 21.82376464631062 C 0.0 **** -0.24
33017 H 59.43674418073222 41.90451280261804 22.24266305690675 H 0.0 **** 0.06
33018 H 57.69473684411046 41.8333004284387 21.886873645310104 H 0.0 **** 0.06
33019 H 58.794952425999085 42.68982858099927 20.779795852834425 H 0.0 **** 0.06
33020 H 58.43980046167705 43.37212517210956 22.385673968850824 H 0.0 **** 0.06
33021 C 49.31120263594594 11.121528006066505 58.03700166908299 C 0.0 **** -0.24
33022 H 49.70796970114753 12.12469295198851 58.192760606966026 H 0.0 **** 0.06
33023 H 49.772093640206414 10.433592369976745 58.746867134905486 H 0.0 **** 0.06
33024 H 49.534307430198446 10.797258029645548 57.02012943581723 H 0.0 **** 0.06
33025 H 48.231683286693496 11.129494914386909 58.18673260619631 H 0.0 **** 0.06
33026 C 30.130812715836043 53.68713108316774 27.291151750925962 C 0.0 **** -0.24
33027 H 30.510955870228145 52.900333397034444 27.942529854815923 H 0.0 **** 0.06
33028 H 29.048094842328567 53.75742456740613 27.40236672018434 H 0.0 **** 0.06
33029 H 30.37533876322243 53.45110679664532 26.255698038793106 H 0.0 **** 0.06
33030 H 30.58615762315827 54.63790891514907 27.56528732309755 H 0.0 **** 0.06
33031 C 38.14550640194649 54.54825864169629 22.405147759878787 C 0.0 **** -0.24
33032 H 37.160838651458235 54.29815928544059 22.800025707886107 H 0.0 **** 0.06
33033 H 38.12740150920066 55.55883288543288 21.99698629903611 H 0.0 **** 0.06
33034 H 38.40988667826767 53.84291250749732 21.615963453901486 H 0.0 **** 0.06
33035 H 38.883219396802694 54.49167271316901 23.204388236438547 H 0.0 **** 0.06
33036 C 57.60245177972541 81.71958460085034 9.669853633493432 C 0.0 **** -0.24
33037 H 58.293939142232546 81.05216983739848 10.18518913308165 H 0.0 **** 0.06
33038 H 57.766716045305856 82.74355660484935 10.007586548480589 H 0.0 **** 0.06
33039 H 56.578235157956044 81.42282965977252 9.893146317012082 H 0.0 **** 0.06
33040 H 57.77252311260207 81.65957010707277 8.59532963780427 H 0.0 **** 0.06
33041 C 17.620785760555947 54.719287370149175 86.33519741558888 C 0.0 **** -0.24
33042 H 16.621996933438865 54.61180200952464 85.91418488103034 H 0.0 **** 0.06
33043 H 18.308469437418736 54.05265093968577 85.81385305382219 H 0.0 **** 0.06
33044 H 17.597809543236252 54.46223284925309 87.39467793908557 H 0.0 **** 0.06
33045 H 17.955602700654822 55.74972593070624 86.2190302166614 H 0.0 **** 0.06
33046 C 42.37563266833337 50.65586411025148 23.848075192270212 C 0.0 **** -0.24
33047 H 41.80614454490643 51.5659703674537 23.660067921153704 H 0.0 **** 0.06
33048 H 43.441275492500154 50.88323704455695 23.82052921489513 H 0.0 **** 0.06
33049 H 42.1405151801919 49.916067772302284 23.082583173389168 H 0.0 **** 0.06
33050 H 42.113090341597456 50.25983499328179 24.829126329967213 H 0.0 **** 0.06
33051 C 78.10597237972307 68.05900879498421 37.726523165202934 C 0.0 **** -0.24
33052 H 77.14851728529194 68.39181430416284 38.12797568464049 H 0.0 **** 0.06
33053 H 78.76702708736471 68.91720262318339 37.60459325631984 H 0.0 **** 0.06
33054 H 77.94863094906205 67.58050398298008 36.760209731675126 H 0.0 **** 0.06
33055 H 78.55929899456203 67.34660183107547 38.41550948072112 H 0.0 **** 0.06
33056 C 36.90233175119704 31.753423498295035 47.37702247877054 C 0.0 **** -0.24
33057 H 36.093154037133644 31.63403172087976 48.09735565445327 H 0.0 **** 0.06
33058 H 36.91814394766598 30.895839405933657 46.703346418991565 H 0.0 **** 0.06
33059 H 37.85302909097379 31.817251439885467 47.906258172733565 H 0.0 **** 0.06
33060 H 36.74545072329818 32.665948238954 46.801768786550696 H 0.0 **** 0.06
33061 C 51.914959437172286 28.214126254630685 32.654423725829986 C 0.0 **** -0.24
33062 H 52.337399553225225 28.355350943489327 31.65895757327229 H 0.0 **** 0.06
33063 H 50.826179011627914 28.246947258169484 32.59410845541598 H 0.0 **** 0.06
33064 H 52.267226620596716 29.00687605575621 33.31364174636332 H 0.0 **** 0.06
33065 H 52.22766412982929 27.2473341274042 33.04750459006769 H 0.0 **** 0.06
33066 C 103.26601720621332 14.005687982771462 74.59970531355387 C 0.0 **** -0.24
33067 H 103.21781203432639 13.105409365120948 73.98549799260287 H 0.0 **** 0.06
33068 H 102.65816122995342 13.867263265323743 75.49405512953132 H 0.0 **** 0.06
33069 H 102.88801617428976 14.854204187148042 74.02974012567267 H 0.0 **** 0.06
33070 H 104.30018704458666 14.19328539421312 74.8880173080076 H 0.0 **** 0.06
33071 C 96.56171354289347 26.673966768840256 30.57710352100429 C 0.0 **** -0.24
33072 H 96.24831407598052 26.268194008346093 29.615017182333304 H 0.0 **** 0.06
33073 H 96.97316589879307 27.672648586801877 30.43203309370216 H 0.0 **** 0.06
33074 H 97.3220044061879 26.027320877804314 31.013268255255184 H 0.0 **** 0.06
33075 H 95.70268581315545 26.72753539721855 31.245356158957293 H 0.0 **** 0.06
33076 C 32.35031654132919 0.26295475738284324 85.54964212337327 C 0.0 **** -0.24
33077 H 32.083983452037955 1.1195234637637554 84.9303929000054 H 0.0 **** 0.06
33078 H 32.20215614601088 0.5144308847920342 86.59991262459195 H 0.0 **** 0.06
33079 H 33.39610713113771 0.005727769640017755 85.38116604617912 H 0.0 **** 0.06
33080 H 31.72028315810485 -0.5856072356940274 85.28527631028923 H 0.0 **** 0.06
33081 C 74.8264257653884 42.77874970609578 88.92050176382418 C 0.0 **** -0.24
33082 H 74.26393665957195 43.45201697773786 89.56764399595187 H 0.0 **** 0.06
33083 H 75.62748359773956 43.33242489678544 88.42842645555714 H 0.0 **** 0.06
33084 H 74.16036255782682 42.35807132645071 88.16725787102877 H 0.0 **** 0.06
33085 H 75.25466922989756 41.973692818997534 89.51695190031614 H 0.0 **** 0.06
33086 C 89.94696666704962 63.19001734007071 109.27207921832681 C 0.0 **** -0.24
33087 H 89.01181360437056 63.265838883370236 108.71599219712175 H 0.0 **** 0.06
33088 H 90.25003649664512 64.18145677004455 109.60885273900253 H 0.0 **** 0.06
33089 H 90.71972128677805 62.77191370858796 108.62684474656889 H 0.0 **** 0.06
33090 H 89.80371765277312 62.5408146510797 110.13546350002063 H 0.0 **** 0.06
33091 C 69.86988074393804 97.88817019110728 71.23992511477765 C 0.0 **** -0.24
33092 H 70.43192128787672 98.46768105285325 70.50831975992278 H 0.0 **** 0.06
33093 H 69.053995834347 98.49430087786143 71.63476851523727 H 0.0 **** 0.06
33094 H 70.53112037080842 97.59205731252355 72.05437166878201 H 0.0 **** 0.06
33095 H 69.46296319868031 96.99659322389302 70.76148123039152 H 0.0 **** 0.06
33096 C 84.5435411556125 37.012215250782646 76.15333582408635 C 0.0 **** -0.24
33097 H 85.55289616779308 36.667364908144776 75.92885962442324 H 0.0 **** 0.06
33098 H 83.84565311309836 36.587937473175856 75.43158967435522 H 0.0 **** 0.06
33099 H 84.5102543759649 38.10018050471916 76.09625293253112 H 0.0 **** 0.06
33100 H 84.26544142154785 36.69310993877323 77.15835037947977 H 0.0 **** 0.06
33101 C 94.39417047071015 26.023598778905594 89.38615638398 C 0.0 **** -0.24
33102 H 93.98310126230615 26.940516173377915 88.96188224939203 H 0.0 **** 0.06
33103 H 93.60750251646954 25.48138471480975 89.90961530293578 H 0.0 **** 0.06
33104 H 95.19324827594215 26.273109503497764 90.08442204644925 H 0.0 **** 0.06
33105 H 94.79411658807186 25.40186232956988 88.58443897014433 H 0.0 **** 0.06
33106 C 74.35752565732686 51.98840951686779 42.235828475905976 C 0.0 **** -0.24
33107 H 73.72797228576717 51.227328356935004 41.775013029897366 H 0.0 **** 0.06
33108 H 73.77374253250852 52.54729625649878 42.96796766513239 H 0.0 **** 0.06
33109 H 74.72575357692108 52.66827322937115 41.46875136021987 H 0.0 **** 0.06
33110 H 75.2013049500512 51.50993830986647 42.733476639608455 H 0.0 **** 0.06
33111 C 19.660099720609175 86.14085822297338 7.121298157511603 C 0.0 **** -0.24
33112 H 18.879967826226032 86.56535427018133 7.752675353623658 H 0.0 **** 0.06
33113 H 19.64251708041745 86.62696512395684 6.1458973216404615 H 0.0 **** 0.06
33114 H 19.485429966629262 85.07207246436576 6.997377433414783 H 0.0 **** 0.06
33115 H 20.63214304263617 86.29829765274462 7.588088733633015 H 0.0 **** 0.06
33116 C 62.07548907122205 106.53369452197431 81.13374362843888 C 0.0 **** -0.24
33117 H 62.081779669761374 107.16117347720146 80.24163459473012 H 0.0 **** 0.06
33118 H 63.064311776280476 106.54526861379406 81.59255794509367 H 0.0 **** 0.06
33119 H 61.81352214744149 105.51218273763294 80.85806833213366 H 0.0 **** 0.06
33120 H 61.34145757611702 106.91842826360009 81.84251060609274 H 0.0 **** 0.06
33121 C 43.99862275998893 63.65704269586713 19.060099339691703 C 0.0 **** -0.24
33122 H 43.94906071476771 63.35862707337418 18.013569112968128 H 0.0 **** 0.06
33123 H 44.3566420984138 64.68417315272849 19.128114237236275 H 0.0 **** 0.06
33124 H 44.68207327309395 62.99685487931927 19.593656537403035 H 0.0 **** 0.06
33125 H 43.00550104302562 63.58759944649276 19.504228562658795 H 0.0 **** 0.06
33126 C 7.858274510526712 81.38198293670997 41.949290377106195 C 0.0 **** -0.24
33127 H 8.300634602766564 81.29062419926562 42.94149953514835 H 0.0 **** 0.06
33128 H 7.465249069611161 80.41503206450169 41.6364488217977 H 0.0 **** 0.06
33129 H 8.620571088493818 81.71125052055724 41.24241860499464 H 0.0 **** 0.06
33130 H 7.049565856844879 82.11303330832823 41.97798861204157 H 0.0 **** 0.06
33131 C 78.76082194671847 63.0782153135457 100.73158661806245 C 0.0 **** -0.24
33132 H 78.92187268612884 63.79131781144888 101.54111514362779 H 0.0 **** 0.06
33133 H 79.10179663702678 62.09171341624442 101.04394390824731 H 0.0 **** 0.06
33134 H 79.32148173160431 63.39570170721542 99.85220736214367 H 0.0 **** 0.06
33135 H 77.69898277519019 63.03679525202381 100.4905538887117 H 0.0 **** 0.06
33136 C 84.77629795626632 4.175332368883971 35.601554535118275 C 0.0 **** -0.24
33137 H 85.23652644841343 3.6734578389823582 36.4531204995396 H 0.0 **** 0.06
33138 H 85.54604763002163 4.68603508711567 35.02208487505513 H 0.0 **** 0.06
33139 H 84.0474577546778 4.902403536463396 35.95964298709347 H 0.0 **** 0.06
33140 H 84.27690614334222 3.438087739233538 34.9731422319593 H 0.0 **** 0.06
33141 C 7.521345179157251 31.797534333654 51.909223670885716 C 0.0 **** -0.24
33142 H 6.684788109763645 31.14861552548973 52.17036072991409 H 0.0 **** 0.06
33143 H 8.415464292643406 31.46803393146996 52.43860100982986 H 0.0 **** 0.06
33144 H 7.287136897171635 32.823081631097864 52.1929242778028 H 0.0 **** 0.06
33145 H 7.696563839447236 31.748625855373064 50.83411842631392 H 0.0 **** 0.06
33146 C 28.50958824804394 27.731241250430458 65.27154530911105 C 0.0 **** -0.24
33147 H 29.503477637527567 27.294230000750815 65.17214238729969 H 0.0 **** 0.06
33148 H 27.756036875917744 26.968892602760604 65.07368238842145 H 0.0 **** 0.06
33149 H 28.398284441172393 28.5467895451838 64.55748349832538 H 0.0 **** 0.06
33150 H 28.381977427957793 28.1147768981034 66.28457533027279 H 0.0 **** 0.06
33151 C 101.88969369781736 89.9765089825488 87.52605752157558 C 0.0 **** -0.24
33152 H 100.84511640493605 90.18400306656703 87.75711881642565 H 0.0 **** 0.06
33153 H 101.94467796972536 89.20517454496718 86.75702381457239 H 0.0 **** 0.06
33154 H 102.39885738265451 89.63081550236508 88.42496861742677 H 0.0 **** 0.06
33155 H 102.3686355415739 90.88629006493612 87.16318841517534 H 0.0 **** 0.06
33156 C 104.34676793286326 37.13301724313243 20.446827774844166 C 0.0 **** -0.24
33157 H 103.59575143573682 37.015158583758534 21.22837524750321 H 0.0 **** 0.06
33158 H 104.01001225563502 36.63030153859253 19.540301774997147 H 0.0 **** 0.06
33159 H 105.28789836449786 36.692611160411786 20.77825639002114 H 0.0 **** 0.06
33160 H 104.494806585447 38.19281626409412 20.24166342553241 H 0.0 **** 0.06
33161 C 17.047425563329938 98.1769879608986 58.660972804696314 C 0.0 **** -0.24
33162 H 16.447520170421967 99.08634887924305 58.60210675840199 H 0.0 **** 0.06
33163 H 16.474017120817194 97.39679917647214 59.16247068715148 H 0.0 **** 0.06
33164 H 17.95849873049991 98.37919536403574 59.22434366365752 H 0.0 **** 0.06
33165 H 17.307286254389865 97.84789066974783 57.654612888052725 H 0.0 **** 0.06
33166 C 16.623406480282398 6.42424448644627 51.31292542268344 C 0.0 **** -0.24
33167 H 16.48726521805736 7.041691168505878 50.42523065603809 H 0.0 **** 0.06
33168 H 16.870883719611214 5.406490179218537 51.01106112561928 H 0.0 **** 0.06
33169 H 15.701420336694738 6.417089436378575 51.89479331853893 H 0.0 **** 0.06
33170 H 17.43265481576603 6.831453711451843 51.91797631048681 H 0.0 **** 0.06
33171 C 11.314145037302424 73.60003943873765 61.61095403735453 C 0.0 **** -0.24
33172 H 10.359022116161878 73.45577189755329 61.105828358472365 H 0.0 **** 0.06
33173 H 11.13780946879999 73.90778968124225 62.64126873768069 H 0.0 **** 0.06
33174 H 11.885818148867923 74.37048112271324 61.09306664324242 H 0.0 **** 0.06
33175 H 11.874712051027291 72.66501690165673 61.60160707248292 H 0.0 **** 0.06
33176 C 89.94977496237601 9.408379709998258 33.86531363715051 C 0.0 **** -0.24
33177 H 89.82086412459779 8.442856882201909 33.375623372483886 H 0.0 **** 0.06
33178 H 89.77340430073701 9.298619532881958 34.93472557453691 H 0.0 **** 0.06
33179 H 89.23910156192184 10.123013934970231 33.45084641535939 H 0.0 **** 0.06
33180 H 90.9656231327788 9.767140496502634 33.698502141943834 H 0.0 **** 0.06
33181 C 27.082263541414278 108.85089297129308 9.073925005334743 C 0.0 **** -0.24
33182 H 26.227900375666934 109.4004667881425 9.468494443965511 H 0.0 **** 0.06
33183 H 26.72873719025776 108.01668963127054 8.466885605619424 H 0.0 **** 0.06
33184 H 27.68348964706314 108.4710025290285 9.89968239307673 H 0.0 **** 0.06
33185 H 27.6890951957121 109.51643237308245 8.459247401550755 H 0.0 **** 0.06
33186 C 5.6520920561746095 89.96871444099155 34.78368126576683 C 0.0 **** -0.24
33187 H 6.435993944883222 89.21190908449722 34.824465884049104 H 0.0 **** 0.06
33188 H 5.452996072292706 90.2286840705203 33.74430769700666 H 0.0 **** 0.06
33189 H 5.978294336067165 90.85695212076538 35.324937001549046 H 0.0 **** 0.06
33190 H 4.745091846155816 89.57682875286461 35.242319482675704 H 0.0 **** 0.06
33191 C 35.95734106330353 53.64163831398798 31.9080206833504 C 0.0 **** -0.24
33192 H 36.51318880364644 53.35981080885267 32.80329019547503 H 0.0 **** 0.06
33193 H 36.39317302924272 54.54499430100083 31.480560331606853 H 0.0 **** 0.06
33194 H 34.91638064096799 53.828059108957405 32.17055545954116 H 0.0 **** 0.06
33195 H 36.00928567905044 52.833142943732014 31.17894397459156 H 0.0 **** 0.06
33196 C 21.18846302391964 57.01730501675661 35.37522488867208 C 0.0 **** -0.24
33197 H 21.84265537423701 57.77747571813944 35.801344240863386 H 0.0 **** 0.06
33198 H 21.34356029992378 56.07209670996684 35.89687134819005 H 0.0 **** 0.06
33199 H 21.41922998886122 56.89123209020363 34.31777084642226 H 0.0 **** 0.06
33200 H 20.150104302820736 57.32802319204649 35.48735519600626 H 0.0 **** 0.06
33201 C 100.26080661191057 48.4644432188322 54.67224086311211 C 0.0 **** -0.24
33202 H 100.48450606388838 47.73913200671171 53.88984066354601 H 0.0 **** 0.06
33203 H 99.51682101652847 48.04746499044657 55.35165200370744 H 0.0 **** 0.06
33204 H 99.8693310430773 49.37682892359271 54.22130947750094 H 0.0 **** 0.06
33205 H 101.17042717036674 48.69469111064197 55.22561608772003 H 0.0 **** 0.06
33206 C 93.98284996141108 103.64314219610405 57.25011921675558 C 0.0 **** -0.24
33207 H 93.98277763780281 104.37252329893961 58.060219872676 H 0.0 **** 0.06
33208 H 93.9332623488206 102.63736138303992 57.66667276882212 H 0.0 **** 0.06
33209 H 94.89741858583606 103.75016598616895 56.66583926596541 H 0.0 **** 0.06
33210 H 93.11880657414103 103.8138592433374 56.60707206946509 H 0.0 **** 0.06
33211 C 42.43196550576778 0.8665926675790558 15.91975508083857 C 0.0 **** -0.24
33212 H 42.06653927828029 1.8611447454200913 15.662664176826468 H 0.0 **** 0.06
33213 H 41.66195577541305 0.12813251440249473 15.694738373167354 H 0.0 **** 0.06
33214 H 42.67084289819286 0.8311160633044778 16.98330194495651 H 0.0 **** 0.06
33215 H 43.3278204282214 0.6466856772537426 15.338372437993996 H 0.0 **** 0.06
33216 C 99.80483917789276 99.19508288458177 28.790572220787993 C 0.0 **** -0.24
33217 H 100.15759394288186 98.45806447083427 28.069405958681415 H 0.0 **** 0.06
33218 H 98.93831116292269 99.71730247510521 28.382467010672087 H 0.0 **** 0.06
33219 H 100.59971802391078 99.91355726937714 28.993103919942712 H 0.0 **** 0.06
33220 H 99.52373659249699 98.69283021534083 29.715906445372724 H 0.0 **** 0.06
33221 C 15.503863037375922 42.06937799432569 105.821690669488 C 0.0 **** -0.24
33222 H 15.904583630027275 42.76360606088275 106.5603842908807 H 0.0 **** 0.06
33223 H 15.08889999851624 41.19951054419681 106.33006663237927 H 0.0 **** 0.06
33224 H 16.301194436149984 41.75347854415082 105.15012610574794 H 0.0 **** 0.06
33225 H 14.719733473082087 42.56333971633285 105.24819743539476 H 0.0 **** 0.06
33226 C 102.51952416640165 42.204018278646785 83.23817010348716 C 0.0 **** -0.24
33227 H 101.9597671666379 41.33901398504157 83.5947252405881 H 0.0 **** 0.06
33228 H 103.53623315868205 41.89948128778927 82.98831425010621 H 0.0 **** 0.06
33229 H 102.54828930996158 42.96452014550568 84.01842604532385 H 0.0 **** 0.06
33230 H 102.03326844972162 42.61028239818656 82.35112516749962 H 0.0 **** 0.06
33231 C 102.00429042491504 29.960560598168513 10.53113445135233 C 0.0 **** -0.24
33232 H 102.44910577604628 29.430856955110755 9.688027533222808 H 0.0 **** 0.06
33233 H 102.20504362285243 29.410800844500272 11.451018281454452 H 0.0 **** 0.06
33234 H 100.92775042099271 30.03929085054861 10.382490623661297 H 0.0 **** 0.06
33235 H 102.43620747878504 30.95808394393032 10.601658355658756 H 0.0 **** 0.06
33236 C 2.234834155277369 100.99195217489341 15.096561708046565 C 0.0 **** -0.24
33237 H 1.8067052081584478 101.7316170448497 15.774150387552893 H 0.0 **** 0.06
33238 H 2.936333667255653 101.48132760317525 14.421213673676974 H 0.0 **** 0.06
33239 H 1.436627071016403 100.52609877612723 14.517567762905784 H 0.0 **** 0.06
33240 H 2.7572871152637504 100.22937752215434 15.674709351918509 H 0.0 **** 0.06
33241 C 33.60785898314464 24.237169940251118 42.46414448858468 C 0.0 **** -0.24
33242 H 33.42921705825937 23.175348216552095 42.2972627647481 H 0.0 **** 0.06
33243 H 34.367700117123434 24.59099892039005 41.767602064500636 H 0.0 **** 0.06
33244 H 33.95104211722223 24.391810739330584 43.48696334371516 H 0.0 **** 0.06
33245 H 32.6812249965684 24.790582035454968 42.303787086643695 H 0.0 **** 0.06
33246 C 1.703604417068135 75.78783864858514 72.62245049926639 C 0.0 **** -0.24
33247 H 1.805996182581822 75.16348322723837 71.7347770763717 H 0.0 **** 0.06
33248 H 2.6174989347375544 75.72889502270147 73.21513541939748 H 0.0 **** 0.06
33249 H 0.8607849879155935 75.43617854785307 73.2186446906423 H 0.0 **** 0.06
33250 H 1.5305601943866805 76.82062239908075 72.32228851841126 H 0.0 **** 0.06
33251 C 30.49904315538484 78.92764444747564 98.08996628359091 C 0.0 **** -0.24
33252 H 30.706264927050285 79.69344996303505 97.34314510996768 H 0.0 **** 0.06
33253 H 31.159871578085728 78.07535894016746 97.92983788511134 H 0.0 **** 0.06
33254 H 29.46144705973697 78.60627636876822 98.00228083825294 H 0.0 **** 0.06
33255 H 30.669969259293055 79.33678943064558 99.08615479882718 H 0.0 **** 0.06
33256 C 108.32299151554292 21.177496162757052 93.42681741526934 C 0.0 **** -0.24
33257 H 107.65553569238281 20.42207924371516 93.8425167155653 H 0.0 **** 0.06
33258 H 107.74840599459327 22.06857560842826 93.17407097822279 H 0.0 **** 0.06
33259 H 108.79888757527075 20.785263573865166 92.52851882441736 H 0.0 **** 0.06
33260 H 109.08647268340377 21.432749860888805 94.16175069341372 H 0.0 **** 0.06
33261 C 27.552129036447838 11.140469394903022 6.630250471614076 C 0.0 **** -0.24
33262 H 27.062862794563074 11.715140499563972 7.416415536094149 H 0.0 **** 0.06
33263 H 27.328439985224037 10.081380508352481 6.76087143105417 H 0.0 **** 0.06
33264 H 28.6302616122409 11.29434591047226 6.686295847221558 H 0.0 **** 0.06
33265 H 27.187442495709405 11.47283773994829 5.658611214447532 H 0.0 **** 0.06
33266 C 26.102452958356864 78.51979624102904 64.04995873510217 C 0.0 **** -0.24
33267 H 26.27276965446326 79.27480457351807 63.28273355088925 H 0.0 **** 0.06
33268 H 26.913923595724654 77.79255516335746 64.03163762653537 H 0.0 **** 0.06
33269 H 25.156590048729882 78.01347698213775 63.856836913518464 H 0.0 **** 0.06
33270 H 26.064847795146264 78.99871261768024 65.02842070278257 H 0.0 **** 0.06
33271 C 23.184913937282502 84.95803480955398 50.713931505015125 C 0.0 **** -0.24
33272 H 22.63061666965348 85.89661977097828 50.717199125611614 H 0.0 **** 0.06
33273 H 24.07947502347659 85.06304515767248 51.32968491991036 H 0.0 **** 0.06
33274 H 23.473822921336126 84.71064657313511 49.692006083441925 H 0.0 **** 0.06
33275 H 22.55732748359631 84.16339147026817 51.11703205755754 H 0.0 **** 0.06
33276 C 47.348346319221804 83.52645466733134 22.32882069354605 C 0.0 **** -0.24
33277 H 47.81942409780908 82.90964533885762 23.09426425812265 H 0.0 **** 0.06
33278 H 46.2650224304849 83.44748366904196 22.4143294598083 H 0.0 **** 0.06
33279 H 47.66168480863591 83.18323397669684 21.342336297848846 H 0.0 **** 0.06
33280 H 47.648656253242834 84.56602192793528 22.463508344572404 H 0.0 **** 0.06
33281 C 98.62499457368469 59.239606408640455 26.202235826444166 C 0.0 **** -0.24
33282 H 97.69021280796758 59.101244818312495 26.743517525129874 H 0.0 **** 0.06
33283 H 99.03877942931894 58.26591832375225 25.936972661564766 H 0.0 **** 0.06
33284 H 99.33477194629063 59.776306169134116 26.83194474706022 H 0.0 **** 0.06
33285 H 98.43820950767841 59.81469120876736 25.29511251949714 H 0.0 **** 0.06
33286 C 49.37373894490654 30.06457115566485 72.39819755380455 C 0.0 **** -0.24
33287 H 49.7606452079007 29.213842209662005 72.95970596728102 H 0.0 **** 0.06
33288 H 49.25898193395291 29.78595565759744 71.35084609508237 H 0.0 **** 0.06
33289 H 50.07086886139801 30.898875956178557 72.47836151984018 H 0.0 **** 0.06
33290 H 48.40629802218209 30.359002379001254 72.80437750762292 H 0.0 **** 0.06
33291 C 99.89523000762631 3.8893033946072535 88.34817808586226 C 0.0 **** -0.24
33292 H 100.51342528587074 4.786453042384423 88.37885323708389 H 0.0 **** 0.06
33293 H 99.38395276355682 3.768601615545407 89.30407117766185 H 0.0 **** 0.06
33294 H 100.52597635803194 3.0200910895225803 88.16156115697936 H 0.0 **** 0.06
33295 H 99.15856789566169 3.982628594795557 87.55039040081004 H 0.0 **** 0.06
33296 C 29.901607759355898 86.40868275445183 33.24706327167155 C 0.0 **** -0.24
33297 H 28.892971050140517 86.18306038254013 33.591519855379374 H 0.0 **** 0.06
33298 H 30.016668032447058 87.48755788137956 33.140491791239356 H 0.0 **** 0.06
33299 H 30.07146696469772 85.92714483319543 32.28334805843235 H 0.0 **** 0.06
33300 H 30.62487725036783 86.0344601170504 33.97166421673012 H 0.0 **** 0.06
33301 C 77.62989331907983 78.7478584582127 41.194386899854976 C 0.0 **** -0.24
33302 H 77.58450365697814 78.08513216493998 42.057811150142015 H 0.0 **** 0.06
33303 H 77.57636098260909 79.78447233742736 41.52909705088547 H 0.0 **** 0.06
33304 H 76.79284830820842 78.53742437432601 40.529732147669506 H 0.0 **** 0.06
33305 H 78.5671733593861 78.58684231753674 40.66206296062552 H 0.0 **** 0.06
33306 C 60.39155913563988 24.426328281335245 85.24216782516763 C 0.0 **** -0.24
33307 H 60.89696012676845 25.12997181393294 84.58115084348151 H 0.0 **** 0.06
33308 H 60.14269703412636 23.521392170809932 84.68734246355558 H 0.0 **** 0.06
33309 H 59.47757854761217 24.879698094115483 85.62602739369368 H 0.0 **** 0.06
33310 H 61.04859455021 24.173565019280005 86.07475421377566 H 0.0 **** 0.06
33311 C 89.88105819822805 13.010000938453999 51.45178884661971 C 0.0 **** -0.24
33312 H 90.78401291944571 12.942155870437489 52.05841284268872 H 0.0 **** 0.06
33313 H 89.7108124533837 14.048825866604602 51.1678398171931 H 0.0 **** 0.06
33314 H 89.02932983426497 12.646299934350623 52.027244557283886 H 0.0 **** 0.06
33315 H 89.99872166693827 12.402072997574777 50.55497740054296 H 0.0 **** 0.06
33316 C 17.005953682628785 72.69908045718012 63.65096614956494 C 0.0 **** -0.24
33317 H 17.506650488634747 73.6540139611983 63.81140488008734 H 0.0 **** 0.06
33318 H 16.576382272923937 72.35139038511227 64.59065380908162 H 0.0 **** 0.06
33319 H 17.7284469916073 71.96736207059456 63.288738997036276 H 0.0 **** 0.06
33320 H 16.213650322601012 72.8239571062145 62.91339646868363 H 0.0 **** 0.06
33321 C 103.30627469575656 107.08309713819989 45.654236687961685 C 0.0 **** -0.24
33322 H 103.20530326066194 106.30400176769379 44.899123451071 H 0.0 **** 0.06
33323 H 104.35483878052368 107.17804655784784 45.93970634473187 H 0.0 **** 0.06
33324 H 102.7141349369284 106.81994031863286 46.52994256909231 H 0.0 **** 0.06
33325 H 102.95351443583797 108.03096043520696 45.247514125623006 H 0.0 **** 0.06
33326 C 63.88712471828458 89.3914560716903 51.09454590010975 C 0.0 **** -0.24
33327 H 63.45966882322564 89.38332934666869 52.09765123962342 H 0.0 **** 0.06
33328 H 63.71529503035718 88.42582346679364 50.61913756171947 H 0.0 **** 0.06
33329 H 64.95883510403328 89.58025375098316 51.15953178298889 H 0.0 **** 0.06
33330 H 63.415097534199575 90.17719394839986 50.505361589610374 H 0.0 **** 0.06
33331 C 21.705531811771138 77.03375843516928 11.415392622562365 C 0.0 **** -0.24
33332 H 22.028157240482443 77.10030037280816 12.454015183683325 H 0.0 **** 0.06
33333 H 21.279442232939942 77.98899842828823 11.106418256355838 H 0.0 **** 0.06
33334 H 20.95305244536607 76.25195017895877 11.317318845617635 H 0.0 **** 0.06
33335 H 22.561349533526524 76.79622834917527 10.78393373786625 H 0.0 **** 0.06
33336 C 29.856341955370226 38.890842399206235 81.55248491553948 C 0.0 **** -0.24
33337 H 29.141911452412728 39.70989575303929 81.64262695283014 H 0.0 **** 0.06
33338 H 29.326663816478572 37.97549276978208 81.28546606094665 H 0.0 **** 0.06
33339 H 30.369184533342832 38.74980457382793 82.50389738365664 H 0.0 **** 0.06
33340 H 30.585233616857835 39.127912156274135 80.77740830920317 H 0.0 **** 0.06
33341 C 83.2883514273336 102.16748367846793 95.46813206667133 C 0.0 **** -0.24
33342 H 84.30345395397944 101.77523696601247 95.40813015161928 H 0.0 **** 0.06
33343 H 83.12266978071995 102.874413619155 94.65627221066529 H 0.0 **** 0.06
33344 H 83.15051376231261 102.67270866517276 96.4248914044424 H 0.0 **** 0.06
33345 H 82.57639942299028 101.34518890452262 95.38686344910496 H 0.0 **** 0.06
33346 C 34.20912160442202 17.02242029101029 89.72505880350991 C 0.0 **** -0.24
33347 H 35.18581100363093 16.608914242889853 89.97647564827753 H 0.0 **** 0.06
33348 H 33.994116939503684 16.830127873757135 88.6729102452872 H 0.0 **** 0.06
33349 H 34.21111909530933 18.096649209478244 89.90549445996703 H 0.0 **** 0.06
33350 H 33.44524670313356 16.550915355996437 90.34348107264702 H 0.0 **** 0.06
33351 C 20.25474724890753 59.394936841732516 59.54736038905803 C 0.0 **** -0.24
33352 H 21.124962956039848 59.06519974057211 60.115035417713045 H 0.0 **** 0.06
33353 H 20.111502045660536 60.46541483720024 59.692513780454846 H 0.0 **** 0.06
33354 H 19.370809671770406 58.859456057359 59.89368328575533 H 0.0 **** 0.06
33355 H 20.412811581955847 59.188794095447534 58.48833973639661 H 0.0 **** 0.06
33356 C 68.84343876896168 84.19530399512445 7.180053237421532 C 0.0 **** -0.24
33357 H 69.13053322702075 85.20769511000015 6.8961151104857805 H 0.0 **** 0.06
33358 H 67.93915302620968 83.91033672825137 6.642019938012737 H 0.0 **** 0.06
33359 H 68.65581358354268 84.159015963912 8.253007949674455 H 0.0 **** 0.06
33360 H 69.64887246228682 83.5059107556757 6.928306631200172 H 0.0 **** 0.06
33361 C 46.73286044763162 15.679408383490042 30.32003932185711 C 0.0 **** -0.24
33362 H 46.99849644226373 15.555240308827408 29.26996280198071 H 0.0 **** 0.06
33363 H 45.67393538538508 15.455695390396897 30.454166630398575 H 0.0 **** 0.06
33364 H 46.927939195276 16.707301496487275 30.62505714375041 H 0.0 **** 0.06
33365 H 47.328562636115464 14.999899615997066 30.929403409836468 H 0.0 **** 0.06
33366 C 92.30213466228372 95.93663773819708 108.6752724320989 C 0.0 **** -0.24
33367 H 92.66863808145014 95.02263260950471 109.1428627924479 H 0.0 **** 0.06
33368 H 92.02322940515255 95.72999321183772 107.64271895213982 H 0.0 **** 0.06
33369 H 93.0852562010111 96.69510776690595 108.69690065702456 H 0.0 **** 0.06
33370 H 91.43104230875976 96.29897772904684 109.22189912844125 H 0.0 **** 0.06
33371 C 16.132739687666003 77.87650097158769 1.8027537317367432 C 0.0 **** -0.24
33372 H 16.010586389828376 78.27430918841543 0.7953550748311216 H 0.0 **** 0.06
33373 H 15.897903456668985 78.65306896668358 2.5309329501947957 H 0.0 **** 0.06
33374 H 17.16260216974848 77.546825984777 1.9404401224849863 H 0.0 **** 0.06
33375 H 15.457942194683369 77.0314815346157 1.942805163662399 H 0.0 **** 0.06
33376 C 81.76614377064726 55.62589005636357 37.06317307821399 C 0.0 **** -0.24
33377 H 81.19213211339789 56.514304157591084 37.32462444467487 H 0.0 **** 0.06
33378 H 82.78944082452082 55.91438399336522 36.818889744423586 H 0.0 **** 0.06
33379 H 81.3100275788301 55.13881002807079 36.201598412832 H 0.0 **** 0.06
33380 H 81.77478117603985 54.937374075331945 37.90858720138135 H 0.0 **** 0.06
33381 C 55.881007728990916 8.589984691447171 102.27354349608137 C 0.0 **** -0.24
33382 H 56.78064204055722 8.139125188741303 102.6924368916825 H 0.0 **** 0.06
33383 H 55.12235108472931 8.676917910613682 103.05150659727103 H 0.0 **** 0.06
33384 H 55.50379036551961 7.963884080974765 101.46574532408141 H 0.0 **** 0.06
33385 H 56.118530771584304 9.580860383930059 101.88528060308799 H 0.0 **** 0.06
33386 C 33.04401884907003 76.6204437652458 65.56636801840388 C 0.0 **** -0.24
33387 H 33.67004353346218 77.39504001250984 66.00788081439833 H 0.0 **** 0.06
33388 H 32.221055107813584 76.38872313090616 66.24366423895647 H 0.0 **** 0.06
33389 H 33.63991415379269 75.72363361812626 65.39874887533115 H 0.0 **** 0.06
33390 H 32.64446853619012 76.9742891057507 64.61597763275438 H 0.0 **** 0.06
33391 C 40.92805809709404 58.915147817303854 84.681503115583 C 0.0 **** -0.24
33392 H 40.178003481876715 59.24396768403602 85.40074746107456 H 0.0 **** 0.06
33393 H 41.33735969510349 57.95493412765808 84.99652020826005 H 0.0 **** 0.06
33394 H 41.72846259819818 59.65340991772388 84.62872445577254 H 0.0 **** 0.06
33395 H 40.46646634158651 58.80934438303232 83.6997014286314 H 0.0 **** 0.06
33396 C 28.97706798288732 44.4874058129862 60.28619641875798 C 0.0 **** -0.24
33397 H 29.607005391849555 43.62064715058176 60.08944256002857 H 0.0 **** 0.06
33398 H 28.924436533330493 44.66106233519764 61.36161506886515 H 0.0 **** 0.06
33399 H 27.975870770760935 44.30450101406558 59.89793134713403 H 0.0 **** 0.06
33400 H 29.402189618295722 45.36333050271975 59.797013063308526 H 0.0 **** 0.06
33401 C 63.7757616308989 8.69864565020913 56.8625505134491 C 0.0 **** -0.24
33402 H 64.35948934474541 9.581056451410717 57.12515670063529 H 0.0 **** 0.06
33403 H 64.44265579085572 7.844787555052363 56.74463792984602 H 0.0 **** 0.06
33404 H 63.247289849372066 8.878576325542696 55.925658066551286 H 0.0 **** 0.06
33405 H 63.05477093544857 8.491742909245687 57.65271029539891 H 0.0 **** 0.06
33406 C 108.15773684724681 102.97305161511807 37.34632265762745 C 0.0 **** -0.24
33407 H 107.40782882371334 102.52502804806127 36.694937466189785 H 0.0 **** 0.06
33408 H 108.6515365197487 102.18968468977587 37.92240430977436 H 0.0 **** 0.06
33409 H 107.67579068259153 103.67562121629018 38.02597455262085 H 0.0 **** 0.06
33410 H 108.8968814882316 103.49967912934471 36.741942341825094 H 0.0 **** 0.06
33411 C 46.11593092425608 108.72763540210853 63.26515616339363 C 0.0 **** -0.24
33412 H 47.163789411633985 108.72628348522761 63.56331646749564 H 0.0 **** 0.06
33413 H 45.49059803091106 108.52310138327381 64.13408220243714 H 0.0 **** 0.06
33414 H 45.95297923842594 107.95756180615591 62.51026919599167 H 0.0 **** 0.06
33415 H 45.85718139934562 109.70220083452759 62.8514149941478 H 0.0 **** 0.06
33416 C 93.33342972979563 61.62866557129877 91.2707081307203 C 0.0 **** -0.24
33417 H 92.8532185230722 60.92125440693022 90.59434245693087 H 0.0 **** 0.06
33418 H 93.73930937499313 61.09287827945582 92.12947970332957 H 0.0 **** 0.06
33419 H 92.59934422841508 62.35962131030308 91.61240264091592 H 0.0 **** 0.06
33420 H 94.14002441605692 62.14098480256757 90.74742826246926 H 0.0 **** 0.06
33421 C 53.32456200977071 70.20947084849354 51.4648003643314 C 0.0 **** -0.24
33422 H 54.01936511506319 69.63553483844703 52.077961815736074 H 0.0 **** 0.06
33423 H 53.41574002160428 69.89747104566123 50.42464483236683 H 0.0 **** 0.06
33424 H 53.559239181244514 71.270973376406 51.547691274197476 H 0.0 **** 0.06
33425 H 52.30549372042764 70.0336616339356 51.809546376361006 H 0.0 **** 0.06
33426 C 58.79595778763126 41.964428474027955 66.08460254698389 C 0.0 **** -0.24
33427 H 59.555645077243454 42.618691609992766 65.65549895305901 H 0.0 **** 0.06
33428 H 57.80498829007879 42.328478517051394 65.8094644161852 H 0.0 **** 0.06
33429 H 58.892386617992656 41.95934639211754 67.17003356084365 H 0.0 **** 0.06
33430 H 58.93117790923303 40.95253657056941 65.70314463475492 H 0.0 **** 0.06
33431 C 31.265879178810906 76.5546233646982 42.743590780894806 C 0.0 **** -0.24
33432 H 31.474679409238718 77.46047846797016 42.173926943195454 H 0.0 **** 0.06
33433 H 30.806844476969104 76.8230204815688 43.6952167606529 H 0.0 **** 0.06
33434 H 32.19669761895773 76.0186763926756 42.92743502530371 H 0.0 **** 0.06
33435 H 30.58514829817352 75.91914206039168 42.17771993823541 H 0.0 **** 0.06
33436 C 68.53763918124798 1.0654076363509262 0.14269157959540735 C 0.0 **** -0.24
33437 H 67.89913205420766 0.40153999684162045 -0.4399963824000963 H 0.0 **** 0.06
33438 H 69.56593732829376 0.7045960592862457 0.10495784499678962 H 0.0 **** 0.06
33439 H 68.19573626973781 1.0828863493010772 1.1773628991233238 H 0.0 **** 0.06
33440 H 68.49057662677694 2.0719165090039837 -0.2732433638832106 H 0.0 **** 0.06
33441 C 61.81895858807786 59.096779828783184 28.288088003614476 C 0.0 **** -0.24
33442 H 61.53424366022085 59.41387381356702 27.284318243840403 H 0.0 **** 0.06
33443 H 62.18927401630475 58.07167910371919 28.252875718261407 H 0.0 **** 0.06
33444 H 60.950044801046516 59.14768177001605 28.944190651793917 H 0.0 **** 0.06
33445 H 62.60061410146841 59.75379477934638 28.668275893456894 H 0.0 **** 0.06
33446 C 2.0593322576701496 42.88812349169344 33.155779062826355 C 0.0 **** -0.24
33447 H 1.7285968035907047 43.51391400835359 33.98499446098688 H 0.0 **** 0.06
33448 H 1.25587961047421 42.207415586542076 32.872319168473666 H 0.0 **** 0.06
33449 H 2.9334279592476094 42.31299093971249 33.46030342701053 H 0.0 **** 0.06
33450 H 2.3178493850550694 43.51972671864248 32.305824872577745 H 0.0 **** 0.06
33451 C 57.52824543944565 38.74214906661081 36.06193061985164 C 0.0 **** -0.24
33452 H 58.125722715418696 39.63841251749034 36.23001873773461 H 0.0 **** 0.06
33453 H 56.77714238549675 38.65402918810477 36.84750684128451 H 0.0 **** 0.06
33454 H 58.17566000651772 37.86557708922902 36.076722250090086 H 0.0 **** 0.06
33455 H 57.03342702345284 38.8129984689532 35.092435883368125 H 0.0 **** 0.06
33456 C 42.177540125696 99.08743067433932 107.34298356522756 C 0.0 **** -0.24
33457 H 41.15149130726218 99.45553442630006 107.35021713487116 H 0.0 **** 0.06
33458 H 42.712572452401275 99.51734949316716 106.49636082167083 H 0.0 **** 0.06
33459 H 42.1723937452831 98.00088063619529 107.25645962185767 H 0.0 **** 0.06
33460 H 42.67337657009057 99.37505256451527 108.27033665596038 H 0.0 **** 0.06
33461 C 40.620072559225626 26.317324428453503 95.84545303163299 C 0.0 **** -0.24
33462 H 41.464923521463746 25.62892202748384 95.85272149196479 H 0.0 **** 0.06
33463 H 40.62869779085898 26.912371260513936 96.75954318927685 H 0.0 **** 0.06
33464 H 39.69029853024436 25.751153906059898 95.78804163074066 H 0.0 **** 0.06
33465 H 40.6975712354093 26.97740082033289 94.98100059273192 H 0.0 **** 0.06
33466 C 56.05993251605987 66.8746020417558 98.80869303280419 C 0.0 **** -0.24
33467 H 56.700717562491555 67.18173488403752 97.98321576606305 H 0.0 **** 0.06
33468 H 55.697802490554594 67.75681368190843 99.33599683455085 H 0.0 **** 0.06
33469 H 56.62831658885018 66.24761293745956 99.49609255384244 H 0.0 **** 0.06
33470 H 55.212220958695724 66.31018381748002 98.42000800003967 H 0.0 **** 0.06
33471 C 93.80867949316065 93.24896226260404 41.28241404383968 C 0.0 **** -0.24
33472 H 94.69470786599362 93.12776964049561 40.658037548917946 H 0.0 **** 0.06
33473 H 94.027426224044 92.90380656310032 42.29344783513571 H 0.0 **** 0.06
33474 H 92.9894829814639 92.66245526587642 40.86681632235636 H 0.0 **** 0.06
33475 H 93.52455183769287 94.30021783638165 41.31019865852463 H 0.0 **** 0.06
33476 C 91.4199973713782 29.673587794521666 96.76327888151536 C 0.0 **** -0.24
33477 H 91.44384475106098 29.561298587691027 97.84724673292192 H 0.0 **** 0.06
33478 H 91.18306876468915 30.707784851533205 96.51151471695854 H 0.0 **** 0.06
33479 H 90.65869592174043 29.014475178431553 96.34696231075424 H 0.0 **** 0.06
33480 H 92.39359214732245 29.412486920474038 96.34973884924483 H 0.0 **** 0.06
33481 C 55.256036252069556 99.2334482409164 36.84720758512492 C 0.0 **** -0.24
33482 H 54.942199217257745 100.24371905003619 36.58535447439343 H 0.0 **** 0.06
33483 H 55.8778089380929 98.82756771958103 36.049581378705454 H 0.0 **** 0.06
33484 H 54.376486704650084 98.60355094916176 36.980049050636865 H 0.0 **** 0.06
33485 H 55.82816510260166 99.26032219372567 37.775538516989 H 0.0 **** 0.06
33486 C 47.08713939197164 27.15530957151418 35.06512078895145 C 0.0 **** -0.24
33487 H 47.56753274669774 27.084446506370796 34.08861242915199 H 0.0 **** 0.06
33488 H 46.12783548532393 27.662436242614973 34.961895708666816 H 0.0 **** 0.06
33489 H 47.726895106400434 27.72179394515115 35.742774098681565 H 0.0 **** 0.06
33490 H 46.92906212392914 26.15432842405039 35.46540710824917 H 0.0 **** 0.06
33491 C 37.42782688771538 94.05421436845991 27.325932962164075 C 0.0 **** -0.24
33492 H 37.67601992891349 95.05995802357918 27.664322906315647 H 0.0 **** 0.06
33493 H 37.02866649543316 93.47771714127659 28.16076457233865 H 0.0 **** 0.06
33494 H 38.326486121329594 93.56786534610237 26.945037795167764 H 0.0 **** 0.06
33495 H 36.68211832385754 94.11126357982131 26.53385915250368 H 0.0 **** 0.06
33496 C 9.88152774227799 18.28962226703368 46.02797713950855 C 0.0 **** -0.24
33497 H 10.138175086222985 17.246787502659345 46.21259465317087 H 0.0 **** 0.06
33498 H 9.632780108029937 18.421492257620088 44.974552806086535 H 0.0 **** 0.06
33499 H 10.73072188971862 18.923856422384574 46.28326368808314 H 0.0 **** 0.06
33500 H 9.024433885140347 18.56635288547062 46.64149741069372 H 0.0 **** 0.06
33501 C 30.562933443206163 24.254879464737883 11.331900118850513 C 0.0 **** -0.24
33502 H 29.75842580849769 24.78019397366893 10.817029256865311 H 0.0 **** 0.06
33503 H 31.030961908014206 23.54594943594799 10.648730706372447 H 0.0 **** 0.06
33504 H 30.155268361051014 23.718317885884645 12.188780348308057 H 0.0 **** 0.06
33505 H 31.306132839159545 24.975495491705885 11.675038758474727 H 0.0 **** 0.06
33506 C 94.97861628569444 107.6300846480886 25.271763912562534 C 0.0 **** -0.24
33507 H 94.33743633909023 108.39770471767287 24.840440966942197 H 0.0 **** 0.06
33508 H 94.8808950233759 107.64220229187919 26.358064360092357 H 0.0 **** 0.06
33509 H 96.01575103100674 107.82644077981388 24.997998127770586 H 0.0 **** 0.06
33510 H 94.6821414723355 106.65264568838381 24.891599982294167 H 0.0 **** 0.06
33511 C 12.598117216932039 23.837475066077342 85.62230261055527 C 0.0 **** -0.24
33512 H 13.644539512928404 23.54140193170702 85.54417467959678 H 0.0 **** 0.06
33513 H 12.120877883628879 23.74329370454911 84.64608673860477 H 0.0 **** 0.06
33514 H 12.53728859048762 24.873075780975075 85.95792730576625 H 0.0 **** 0.06
33515 H 12.090632256056523 23.192083589951295 86.3389620129382 H 0.0 **** 0.06
33516 C 54.06485774890365 57.08982850892174 62.58064795363816 C 0.0 **** -0.24
33517 H 54.51283146337096 56.55408031880318 61.74405589892325 H 0.0 **** 0.06
33518 H 54.513466623667284 56.74772255296087 63.513084780989175 H 0.0 **** 0.06
33519 H 52.99199627425699 56.89849710687351 62.601917970424154 H 0.0 **** 0.06
33520 H 54.24113663431936 58.15901405704948 62.463533164215846 H 0.0 **** 0.06
33521 C 22.09818906714787 34.56427746444858 23.21971874580106 C 0.0 **** -0.24
33522 H 23.00365253171242 34.47637117797412 23.819603093223066 H 0.0 **** 0.06
33523 H 21.658308560088983 35.550671784791334 23.36813797358684 H 0.0 **** 0.06
33524 H 21.38531411323521 33.79821817282904 23.52288745787513 H 0.0 **** 0.06
33525 H 22.34676106812779 34.43171326799284 22.166417937755796 H 0.0 **** 0.06
33526 C 89.66212919514523 6.8065455625944935 60.005651745550665 C 0.0 **** -0.24
33527 H 90.14301382398097 7.782260590319922 60.07774224287648 H 0.0 **** 0.06
33528 H 89.12950918610804 6.733970862137781 59.056974907213764 H 0.0 **** 0.06
33529 H 88.95769729334447 6.686399662777248 60.82849225449061 H 0.0 **** 0.06
33530 H 90.41940994891617 6.024573374125566 60.05774971360535 H 0.0 **** 0.06
33531 C 26.978525255064653 83.77578635934728 48.49451073290112 C 0.0 **** -0.24
33532 H 26.44781696328016 84.39264162309775 49.219352873619016 H 0.0 **** 0.06
33533 H 26.818679362796104 82.72286577471567 48.72654390513037 H 0.0 **** 0.06
33534 H 28.044579549393802 83.9991789532852 48.539006422580485 H 0.0 **** 0.06
33535 H 26.603962060906895 83.98855830035757 47.49280447767973 H 0.0 **** 0.06
33536 C 53.5629871577586 23.106087618120867 89.89939476992477 C 0.0 **** -0.24
33537 H 52.83507440094538 23.00306978723441 90.70408303433996 H 0.0 **** 0.06
33538 H 54.55788985910463 22.866518321502085 90.27767527459761 H 0.0 **** 0.06
33539 H 53.55310226020088 24.130790966365836 89.5283985665694 H 0.0 **** 0.06
33540 H 53.30780817306834 22.42343775186825 89.08987291878326 H 0.0 **** 0.06
33541 C 101.16489812310337 106.88868279978834 57.707929815654246 C 0.0 **** -0.24
33542 H 100.72025277568689 105.91531572941284 57.91375473067767 H 0.0 **** 0.06
33543 H 100.78913091437006 107.26658756109171 56.75687520095752 H 0.0 **** 0.06
33544 H 102.24932623283372 106.78875691617156 57.65651599233706 H 0.0 **** 0.06
33545 H 100.90223990019032 107.5851459544912 58.50462086513685 H 0.0 **** 0.06
33546 C 71.7420650170391 18.374758508687847 11.383789686279187 C 0.0 **** -0.24
33547 H 71.63849832231077 18.229500216617936 10.30784781993384 H 0.0 **** 0.06
33548 H 72.79833557959377 18.464717077118394 11.637657418040817 H 0.0 **** 0.06
33549 H 71.31348739141188 17.520461578424147 11.907135462918092 H 0.0 **** 0.06
33550 H 71.21764802485511 19.28265615854488 11.679196968592578 H 0.0 **** 0.06
33551 C 27.82915509380095 58.557430365862075 47.737253876234234 C 0.0 **** -0.24
33552 H 27.993541882851616 58.42299021310609 46.66825636460257 H 0.0 **** 0.06
33553 H 26.856999568976832 59.02346256855329 47.89861215821628 H 0.0 **** 0.06
33554 H 28.610655958392982 59.19716950403607 48.14660222540414 H 0.0 **** 0.06
33555 H 27.85536012110127 57.58841843442713 48.233642772212335 H 0.0 **** 0.06
33556 C 69.00237319438735 96.3061552742318 81.58321937815364 C 0.0 **** -0.24
33557 H 68.3626807187853 97.18095124359184 81.4649551412218 H 0.0 **** 0.06
33558 H 69.15800018739418 96.11156397867349 82.64453335074721 H 0.0 **** 0.06
33559 H 69.96316165837807 96.49045120751109 81.10295447051826 H 0.0 **** 0.06
33560 H 68.52485279503644 95.44178294706118 81.12159548421748 H 0.0 **** 0.06
33561 C 10.236294979819485 98.0733267605585 73.51697289190327 C 0.0 **** -0.24
33562 H 10.860272507981758 98.28264307584766 74.38566131239534 H 0.0 **** 0.06
33563 H 10.862192541134688 98.00720581391911 72.62752919877269 H 0.0 **** 0.06
33564 H 9.508593154416843 98.87466606334551 73.39165248801072 H 0.0 **** 0.06
33565 H 9.71381964275086 97.12817542916169 73.66517664976095 H 0.0 **** 0.06
33566 C 83.64177224243272 23.96729408617955 76.43466081936015 C 0.0 **** -0.24
33567 H 83.19210961977416 24.85954001500744 76.8710844947282 H 0.0 **** 0.06
33568 H 84.109718899782 24.22412480865148 75.484972077251 H 0.0 **** 0.06
33569 H 82.86954323870742 23.215938365566615 76.26926185760956 H 0.0 **** 0.06
33570 H 84.39461344740886 23.570189264287592 77.11622357348926 H 0.0 **** 0.06
33571 C 101.22198590653772 109.46707752509337 99.17671650214263 C 0.0 **** -0.24
33572 H 101.14336243059552 108.44041276095544 98.81892510887374 H 0.0 **** 0.06
33573 H 101.44303515358388 109.46306425026955 100.24426931554501 H 0.0 **** 0.06
33574 H 100.2787078908832 109.98555699244434 99.00156357342789 H 0.0 **** 0.06
33575 H 102.02207963978822 109.9775057083342 98.64156895245694 H 0.0 **** 0.06
33576 C 15.090444935359955 39.83032208360032 96.7876922526658 C 0.0 **** -0.24
33577 H 14.77396933209667 39.965123728298536 97.82194781490165 H 0.0 **** 0.06
33578 H 14.610691872694076 40.582300440187055 96.16039211332509 H 0.0 **** 0.06
33579 H 14.804457920711798 38.83588887070344 96.44781759686981 H 0.0 **** 0.06
33580 H 16.173208299273853 39.93952090098645 96.72243122264388 H 0.0 **** 0.06
33581 C 98.40780080516181 36.72505535067447 21.466910519389586 C 0.0 **** -0.24
33582 H 98.44477415336246 37.79445458366909 21.258125609422734 H 0.0 **** 0.06
33583 H 97.46226793254573 36.31703156174753 21.10661043853898 H 0.0 **** 0.06
33584 H 98.48726730139326 36.56246582579536 22.542249831128686 H 0.0 **** 0.06
33585 H 99.23507483812388 36.226835856042925 20.962195911714474 H 0.0 **** 0.06
33586 C 5.076170847040345 34.67297651042909 48.1494680193427 C 0.0 **** -0.24
33587 H 5.28018057321745 35.58874195761905 47.593387441965284 H 0.0 **** 0.06
33588 H 4.296707524246585 34.86442076138624 48.888057872445835 H 0.0 **** 0.06
33589 H 5.983951139771392 34.34506428535339 48.655358666706576 H 0.0 **** 0.06
33590 H 4.742338660717849 33.89710451413917 47.46108546587743 H 0.0 **** 0.06
33591 C 47.94894341248866 29.382182514837837 51.54866939903991 C 0.0 **** -0.24
33592 H 48.446655939772626 28.87749465842407 52.375724529682714 H 0.0 **** 0.06
33593 H 48.14979354987753 30.451956321221132 51.602111559907556 H 0.0 **** 0.06
33594 H 46.874580345420554 29.209508047087724 51.61109042928505 H 0.0 **** 0.06
33595 H 48.3249800704657 28.987935317739726 50.6041465114672 H 0.0 **** 0.06
33596 C 82.8838371027763 109.00627885651764 94.56823599277834 C 0.0 **** -0.24
33597 H 82.50668278627147 109.95283231551889 94.18065496867314 H 0.0 **** 0.06
33598 H 83.35768453402478 109.17381544535098 95.53647308396648 H 0.0 **** 0.06
33599 H 83.61483443219869 108.59485866356343 93.87200887100602 H 0.0 **** 0.06
33600 H 82.0573249990996 108.306349510775 94.6841257468181 H 0.0 **** 0.06
33601 C 20.03083291192729 107.77781585953653 2.0845161404129726 C 0.0 **** -0.24
33602 H 19.78523149909205 108.82325794596096 1.9002022489504498 H 0.0 **** 0.06
33603 H 19.120187024531162 107.17941648281516 2.0537569626594347 H 0.0 **** 0.06
33604 H 20.49576711184642 107.68201796015944 3.066292016649868 H 0.0 **** 0.06
33605 H 20.722992632658077 107.4273674952027 1.3190974892577287 H 0.0 **** 0.06
33606 C 39.822231335074676 46.655809225367676 102.64222541025697 C 0.0 **** -0.24
33607 H 39.127036391332105 46.295974490516954 103.40163036482187 H 0.0 **** 0.06
33608 H 40.285922609646754 47.58198743822595 102.98501002624374 H 0.0 **** 0.06
33609 H 39.28260687185717 46.841128435824714 101.7146484673761 H 0.0 **** 0.06
33610 H 40.59357658533845 45.90455649311866 102.47132566413296 H 0.0 **** 0.06
33611 C 107.56206508061663 61.94279262172826 25.07231567671785 C 0.0 **** -0.24
33612 H 107.84235462500874 61.092488143656425 24.45088513994672 H 0.0 **** 0.06
33613 H 106.48177458127765 61.944033117450985 25.220027553252038 H 0.0 **** 0.06
33614 H 107.8635890372731 62.867254619908294 24.58039174688797 H 0.0 **** 0.06
33615 H 108.06058341694524 61.865801099836176 26.039526475103813 H 0.0 **** 0.06
33616 C 73.68157247675299 96.93683028764775 102.98812166811553 C 0.0 **** -0.24
33617 H 73.4335351862573 97.16056767442154 101.94975033207274 H 0.0 **** 0.06
33618 H 74.47910925336816 96.19404349892181 103.01897246708853 H 0.0 **** 0.06
33619 H 72.79967936193151 96.54607423850649 103.49553382508003 H 0.0 **** 0.06
33620 H 74.01366514889074 97.8477372637401 103.4856422954901 H 0.0 **** 0.06
33621 C 29.424574338388283 12.669560995240829 23.346476972584128 C 0.0 **** -0.24
33622 H 29.015738632549272 11.900320103915817 22.691613123096488 H 0.0 **** 0.06
33623 H 30.052949229257052 13.344536190178673 22.765267583958234 H 0.0 **** 0.06
33624 H 30.02092403815297 12.200505671069294 24.129592572025047 H 0.0 **** 0.06
33625 H 28.607759772303666 13.232180990795598 23.800241938443037 H 0.0 **** 0.06
33626 C 21.54606550237672 13.153866787517288 89.57756632908081 C 0.0 **** -0.24
33627 H 21.75434288193381 13.517387993729582 88.57073675803383 H 0.0 **** 0.06
33628 H 21.060336258474678 13.941170740383658 90.15383053825713 H 0.0 **** 0.06
33629 H 22.481477638316534 12.872520046325644 90.06176570452456 H 0.0 **** 0.06
33630 H 20.890373656356132 12.285216298632047 89.52107408657506 H 0.0 **** 0.06
33631 C 106.77827477916901 7.477740636381608 21.459245149912107 C 0.0 **** -0.24
33632 H 107.3839416524387 8.003811622688639 20.721470923617602 H 0.0 **** 0.06
33633 H 107.34735591283385 6.6423760893164445 21.867108603830587 H 0.0 **** 0.06
33634 H 105.87075991422833 7.103589125457299 20.983973283322925 H 0.0 **** 0.06
33635 H 106.51080889482597 8.162147223420652 22.264573969461964 H 0.0 **** 0.06
33636 C 1.5255009793080347 76.57212049868903 57.55511098145777 C 0.0 **** -0.24
33637 H 1.0263714534942352 75.76946181106582 57.011999921198424 H 0.0 **** 0.06
33638 H 0.929380810208869 77.48257270333077 57.48639100549619 H 0.0 **** 0.06
33639 H 2.5102243911433533 76.74710711458032 57.12011624580222 H 0.0 **** 0.06
33640 H 1.636693974200682 76.28774351995303 58.60186107373403 H 0.0 **** 0.06
33641 C 64.76849036953308 31.02123046040353 78.53410355488697 C 0.0 **** -0.24
33642 H 65.39479396440049 31.871292083562537 78.26447625594733 H 0.0 **** 0.06
33643 H 65.36841055177416 30.111056745623074 78.52276934320446 H 0.0 **** 0.06
33644 H 63.953834854730076 30.927703944994164 77.81589602714433 H 0.0 **** 0.06
33645 H 64.35766863380974 31.174892741224824 79.53170981167597 H 0.0 **** 0.06
33646 C 37.087481592150425 78.98976568506214 52.44427939690878 C 0.0 **** -0.24
33647 H 36.304594710182585 78.32130752094491 52.80200087640705 H 0.0 **** 0.06
33648 H 37.280618748732394 78.79169724651149 51.38951314630575 H 0.0 **** 0.06
33649 H 37.999356218057386 78.8233316033672 53.01865582140271 H 0.0 **** 0.06
33650 H 36.76510049772696 80.02492986030046 52.56666624684248 H 0.0 **** 0.06
33651 C 91.5801760870181 107.49823998677414 41.11725600940167 C 0.0 **** -0.24
33652 H 91.12353117935226 107.65159512304155 42.094379046622976 H 0.0 **** 0.06
33653 H 92.04183675611057 108.42674186726177 40.78168703659986 H 0.0 **** 0.06
33654 H 90.8154213496574 107.19389149480656 40.402894031821035 H 0.0 **** 0.06
33655 H 92.34020306308213 106.71937166107261 41.18980296951676 H 0.0 **** 0.06
33656 C 0.008366610709458655 109.16432854263688 107.95996808158498 C 0.0 **** -0.24
33657 H -0.35474179107802684 108.13659466465614 107.96573251502075 H 0.0 **** 0.06
33658 H -0.09261105963366845 109.58981483283483 108.95907260904173 H 0.0 **** 0.06
33659 H -0.5773817270015797 109.75213441260509 107.25361407671443 H 0.0 **** 0.06
33660 H 1.0565968894704838 109.17714393668605 107.66339793414099 H 0.0 **** 0.06
33661 C 85.82702418799228 36.066321328987215 59.995191848600484 C 0.0 **** -0.24
33662 H 86.63491301643137 36.01616796941454 60.72519126268165 H 0.0 **** 0.06
33663 H 85.2412328169789 36.970611827892924 60.164756299431986 H 0.0 **** 0.06
33664 H 85.18555292261307 35.19198092779368 60.102258687739436 H 0.0 **** 0.06
33665 H 86.2479761800894 36.08804654682311 58.989653519071254 H 0.0 **** 0.06
33666 C 10.569758235114602 101.7885390855262 45.92091447034318 C 0.0 **** -0.24
33667 H 11.001829120339696 102.48005456380656 46.64483849847511 H 0.0 **** 0.06
33668 H 9.540394322605225 102.0799449950698 45.70994186515253 H 0.0 **** 0.06
33669 H 10.585080886301736 100.77816478650251 46.330109872122534 H 0.0 **** 0.06
33670 H 11.15257400716641 101.81662846540817 45.000138908520796 H 0.0 **** 0.06
33671 C 3.317864954306714 69.8094387278154 74.82936147555041 C 0.0 **** -0.24
33672 H 3.6637753069058476 70.70431636442902 74.31320370300642 H 0.0 **** 0.06
33673 H 3.5876103905246737 68.92800254354012 74.24684146596107 H 0.0 **** 0.06
33674 H 2.2343720505052147 69.85239885052576 74.94335030374529 H 0.0 **** 0.06
33675 H 3.7844013133531575 69.75378042951002 75.81239036280219 H 0.0 **** 0.06
33676 C 95.64431205249105 60.68098331599563 83.20652967357279 C 0.0 **** -0.24
33677 H 95.22507154366684 60.810214289490006 84.20370646395583 H 0.0 **** 0.06
33678 H 96.40510617325464 61.443202462367225 83.03155751600974 H 0.0 **** 0.06
33679 H 94.85248386621998 60.7796305457627 82.46389873102504 H 0.0 **** 0.06
33680 H 96.0957119091322 59.691674922586515 83.1272897300517 H 0.0 **** 0.06
33681 C 103.47057908472968 49.50279521159928 60.551372897295494 C 0.0 **** -0.24
33682 H 102.50213104517182 49.14946989619244 60.90558538179374 H 0.0 **** 0.06
33683 H 104.25656514877903 49.12324672585572 61.20548588166122 H 0.0 **** 0.06
33684 H 103.48420964036998 50.592429293588566 60.559411020077135 H 0.0 **** 0.06
33685 H 103.63863330262883 49.14420610755957 59.53603478628368 H 0.0 **** 0.06
33686 C 95.83283136846136 28.771808100631517 50.92709880052507 C 0.0 **** -0.24
33687 H 96.43823215871362 28.08663462233619 51.52133789399073 H 0.0 **** 0.06
33688 H 95.2558403950256 28.20542194396492 50.195688498642255 H 0.0 **** 0.06
33689 H 96.48467035994607 29.47624808351381 50.410709327899184 H 0.0 **** 0.06
33690 H 95.15390704780071 29.31777016463778 51.58308974251358 H 0.0 **** 0.06
33691 C 57.11563839722859 42.62119121255208 72.61478971870213 C 0.0 **** -0.24
33692 H 57.998168183490826 42.76518752107853 73.23840989341574 H 0.0 **** 0.06
33693 H 56.890201268290724 41.55711068023618 72.54470705367993 H 0.0 **** 0.06
33694 H 57.30756788666175 43.0190104252149 71.61729540442366 H 0.0 **** 0.06
33695 H 56.268496198165465 43.14421518483597 73.05737172442889 H 0.0 **** 0.06
33696 C 86.99625652731505 63.8819904534725 16.873620173189174 C 0.0 **** -0.24
33697 H 86.34345850150282 63.45150168512822 16.113489869426434 H 0.0 **** 0.06
33698 H 87.68074947227151 63.11655609155633 17.240040066261603 H 0.0 **** 0.06
33699 H 86.39166563180589 64.25522847604549 17.70002387291447 H 0.0 **** 0.06
33700 H 87.56646967860479 64.70344040147882 16.439796695832076 H 0.0 **** 0.06
33701 C 18.77415520322336 28.768946834042566 59.8767621262289 C 0.0 **** -0.24
33702 H 17.775042014109488 29.06725189702803 60.192071046578775 H 0.0 **** 0.06
33703 H 19.456976039971607 28.834380382409677 60.72427557968035 H 0.0 **** 0.06
33704 H 19.116683517305717 29.43050231761461 59.08115697735306 H 0.0 **** 0.06
33705 H 18.74788553206696 27.742791892225455 59.51005269638716 H 0.0 **** 0.06
33706 C 94.83320939419768 98.4437997614849 95.42666836336058 C 0.0 **** -0.24
33707 H 95.32845815736364 98.64724362446464 96.37631310721136 H 0.0 **** 0.06
33708 H 94.5906904957129 99.38577197447555 94.9347813884973 H 0.0 **** 0.06
33709 H 93.91719069523629 97.88222307977276 95.60817925139678 H 0.0 **** 0.06
33710 H 95.49803763104431 97.85993320363227 94.78930490951647 H 0.0 **** 0.06
33711 C 53.704666520256126 39.00632598642699 37.548806599499756 C 0.0 **** -0.24
33712 H 54.100222231998764 38.07052217546652 37.94491367940287 H 0.0 **** 0.06
33713 H 54.510101689974505 39.57302044662407 37.082189610321194 H 0.0 **** 0.06
33714 H 53.271229546270995 39.58980562535277 38.3611130482098 H 0.0 **** 0.06
33715 H 52.934937165960605 38.789454966015995 36.80712970272364 H 0.0 **** 0.06
33716 C 109.17348367390233 53.45318797276417 54.242252707596634 C 0.0 **** -0.24
33717 H 110.2040068534373 53.14866838769145 54.060974921341995 H 0.0 **** 0.06
33718 H 108.65076170078774 53.54955818160534 53.29146813344704 H 0.0 **** 0.06
33719 H 109.16449751613283 54.411607585767555 54.76142605248225 H 0.0 **** 0.06
33720 H 108.6759493477413 52.703192039196246 54.85721170015236 H 0.0 **** 0.06
33721 C 83.38943008220754 95.01749943734598 70.3913989792719 C 0.0 **** -0.24
33722 H 82.73995901639677 95.55332361716756 69.70014679713762 H 0.0 **** 0.06
33723 H 84.06375531495932 95.72352982355714 70.87660250665695 H 0.0 **** 0.06
33724 H 83.97222960618583 94.27676045803906 69.84274297988931 H 0.0 **** 0.06
33725 H 82.78246199782612 94.51685607490464 71.14496037184442 H 0.0 **** 0.06
33726 C 74.20836744544954 25.7298326282571 60.2653988197097 C 0.0 **** -0.24
33727 H 73.94539206605947 25.90770197000966 61.30851547150016 H 0.0 **** 0.06
33728 H 73.45397536556035 25.09337469433328 59.804222399666514 H 0.0 **** 0.06
33729 H 75.18008143290878 25.238042231714044 60.21451636562995 H 0.0 **** 0.06
33730 H 74.25513815429531 26.681236388466818 59.735984779412576 H 0.0 **** 0.06
33731 C 22.16131345922767 46.408028291377576 107.68390334304806 C 0.0 **** -0.24
33732 H 22.49901391747251 46.72815867326568 106.69754901133186 H 0.0 **** 0.06
33733 H 22.889541353524635 45.717660844071105 108.10940748964836 H 0.0 **** 0.06
33734 H 21.196542141099357 45.908943507411266 107.59404491215959 H 0.0 **** 0.06
33735 H 22.062608358601523 47.27842569286349 108.33292919232927 H 0.0 **** 0.06
33736 C 14.826683874100809 16.660841843761148 35.64604167339152 C 0.0 **** -0.24
33737 H 14.857846242016677 16.921929048239463 36.70364756420314 H 0.0 **** 0.06
33738 H 13.790043940813518 16.640487472940492 35.30744561614279 H 0.0 **** 0.06
33739 H 15.275969506094611 15.677300808448535 35.50105056461974 H 0.0 **** 0.06
33740 H 15.381927854961702 17.401634295590043 35.0718270241319 H 0.0 **** 0.06
33741 C 78.03122665972423 18.678748903931705 109.13828841662432 C 0.0 **** -0.24
33742 H 79.104647319608 18.81222200914459 109.01194849134819 H 0.0 **** 0.06
33743 H 77.76969532632413 17.637840748351465 108.9484689561391 H 0.0 **** 0.06
33744 H 77.50052712966452 19.321548437357393 108.43624738380889 H 0.0 **** 0.06
33745 H 77.75003049617317 18.94401293734768 110.15775573124786 H 0.0 **** 0.06
33746 C 9.937518068906115 45.22288269532464 5.437475964465904 C 0.0 **** -0.24
33747 H 10.664731449743527 45.76429334104128 6.041419675349104 H 0.0 **** 0.06
33748 H 9.033453043867723 45.05370383745583 6.022626219047552 H 0.0 **** 0.06
33749 H 10.35943954527309 44.26408480632901 5.133347992199361 H 0.0 **** 0.06
33750 H 9.692926944714259 45.80919785506629 4.551203079467172 H 0.0 **** 0.06
33751 C 62.559122649694174 38.54979750490645 30.659879685488022 C 0.0 **** -0.24
33752 H 62.800638159806965 37.8311799610358 29.87632689419212 H 0.0 **** 0.06
33753 H 61.80544299376223 39.24627088650195 30.29279433264219 H 0.0 **** 0.06
33754 H 63.4585865678622 39.09965968629811 30.93728213011235 H 0.0 **** 0.06
33755 H 62.17290246333255 38.02209042784267 31.531431766119795 H 0.0 **** 0.06
33756 C 16.12961372663412 74.69498375045356 19.729948977685694 C 0.0 **** -0.24
33757 H 15.936205342570048 75.41427146550626 18.93469417628549 H 0.0 **** 0.06
33758 H 15.238370359955724 74.0891360383078 19.89673545179849 H 0.0 **** 0.06
33759 H 16.38482327408161 75.22682866520097 20.64682299517628 H 0.0 **** 0.06
33760 H 16.95964931380051 74.04904656452277 19.442014977235857 H 0.0 **** 0.06
33761 C 83.61494354415689 23.158516209434453 63.42931269704077 C 0.0 **** -0.24
33762 H 84.3643706851947 23.237803433364064 62.64141905604342 H 0.0 **** 0.06
33763 H 83.97937839948324 23.65579363483326 64.32882718680848 H 0.0 **** 0.06
33764 H 83.42619395233083 22.106918737654837 63.64627636859716 H 0.0 **** 0.06
33765 H 82.69050334324794 23.63361768150736 63.09999096639292 H 0.0 **** 0.06
33766 C 3.9628660044154884 85.87464274417512 69.09169646409498 C 0.0 **** -0.24
33767 H 4.912453428209915 86.4074821274794 69.13801885087531 H 0.0 **** 0.06
33768 H 3.263245626391182 86.31760436228045 69.8012394480075 H 0.0 **** 0.06
33769 H 4.12154375026816 84.82603025914116 69.34392871158047 H 0.0 **** 0.06
33770 H 3.554351184081966 85.94843817624664 68.08347636136995 H 0.0 **** 0.06
33771 C 88.9977476629065 79.76323012435714 19.587377220428067 C 0.0 **** -0.24
33772 H 88.80345977931921 79.85616363466069 18.51794019925447 H 0.0 **** 0.06
33773 H 89.4068571310325 80.70083217435457 19.964884499472873 H 0.0 **** 0.06
33774 H 89.7136988305503 78.95911058159527 19.757384718939107 H 0.0 **** 0.06
33775 H 88.06658540735867 79.53731360385227 20.10636701869089 H 0.0 **** 0.06
33776 C 13.243394849086599 54.63967272476333 76.58839202523885 C 0.0 **** -0.24
33777 H 14.139279935853764 55.03116244383793 77.06916798226925 H 0.0 **** 0.06
33778 H 13.50033060766792 54.252488814206856 75.60184727056645 H 0.0 **** 0.06
33779 H 12.508132416202926 55.43670612580675 76.48670779775836 H 0.0 **** 0.06
33780 H 12.827009488293243 53.8364904760077 77.19695295540384 H 0.0 **** 0.06
33781 C 10.061888119678343 102.3204356079383 63.061996579288476 C 0.0 **** -0.24
33782 H 9.32053213704495 102.8722944770775 63.64021451245824 H 0.0 **** 0.06
33783 H 9.986497919848631 101.25789493823129 63.29389854947979 H 0.0 **** 0.06
33784 H 11.059953238818096 102.67817584188265 63.316234338739946 H 0.0 **** 0.06
33785 H 9.880749079829727 102.47492192170944 61.998401505500226 H 0.0 **** 0.06
33786 C 79.24449171188391 83.51960383365046 107.51677800801423 C 0.0 **** -0.24
33787 H 79.2545055353766 83.68625184067179 108.59379797793673 H 0.0 **** 0.06
33788 H 79.58150754104939 82.50426315646257 107.30345056550752 H 0.0 **** 0.06
33789 H 79.91084843340249 84.23329956745981 107.03329177712406 H 0.0 **** 0.06
33790 H 78.23118264606305 83.65309300642345 107.13822123266868 H 0.0 **** 0.06
33791 C 35.425436796516884 2.6623949687878508 45.87385243118359 C 0.0 **** -0.24
33792 H 35.49170164682681 3.02826654328274 46.897895772662196 H 0.0 **** 0.06
33793 H 36.426503005034434 2.4510408782242337 45.49750050165417 H 0.0 **** 0.06
33794 H 34.95360388936443 3.420116750352207 45.24807668400939 H 0.0 **** 0.06
33795 H 34.829001608219 1.7504933689246798 45.85202617465151 H 0.0 **** 0.06
33796 C 24.17998354977172 33.140903650905045 71.37731368354224 C 0.0 **** -0.24
33797 H 24.44862166348554 32.286380687792274 70.75754207000031 H 0.0 **** 0.06
33798 H 25.08013284411288 33.69947826748984 71.6368547880088 H 0.0 **** 0.06
33799 H 23.6944816379754 32.791267860448585 72.28773309650774 H 0.0 **** 0.06
33800 H 23.497257219916833 33.788843233462075 70.82675127414316 H 0.0 **** 0.06
33801 C 61.90243853287467 100.60145675064027 90.7779273523978 C 0.0 **** -0.24
33802 H 61.44128213643933 99.62655520765807 90.62048970739147 H 0.0 **** 0.06
33803 H 62.91943743125694 100.46744506986465 91.14690701006558 H 0.0 **** 0.06
33804 H 61.32132485224571 101.16324050776687 91.50888339649018 H 0.0 **** 0.06
33805 H 61.92647527215337 101.14749198521181 89.83429836074552 H 0.0 **** 0.06
33806 C 4.499650651275047 87.17987579504847 31.659572966173414 C 0.0 **** -0.24
33807 H 3.480958545731667 86.91149890340893 31.939517787118746 H 0.0 **** 0.06
33808 H 4.783187846132364 88.10404177239835 32.16226941837732 H 0.0 **** 0.06
33809 H 4.5532229965728135 87.32187515765429 30.57994058670647 H 0.0 **** 0.06
33810 H 5.180167456208039 86.3809181920227 31.954983730867184 H 0.0 **** 0.06
33811 C 90.90172329203084 27.0534080091291 33.473860985378565 C 0.0 **** -0.24
33812 H 91.46828926218056 26.82516539922281 34.377117991191255 H 0.0 **** 0.06
33813 H 91.22845038771439 28.012885447201597 33.073925647928945 H 0.0 **** 0.06
33814 H 89.83980587415756 27.102139136082457 33.714642076974826 H 0.0 **** 0.06
33815 H 91.0700216445907 26.273122002569266 32.73216479739909 H 0.0 **** 0.06
33816 C 23.675776724420786 99.15814597276241 61.97222513884229 C 0.0 **** -0.24
33817 H 23.289571477579642 98.34784935600648 62.58943960195617 H 0.0 **** 0.06
33818 H 23.384554642632395 100.11585222238142 62.40509736668207 H 0.0 **** 0.06
33819 H 23.26682037518529 99.07430617491566 60.965614276506955 H 0.0 **** 0.06
33820 H 24.763404605469532 99.09450604899875 61.92941799931398 H 0.0 **** 0.06
33821 C 3.0649571375861555 99.83034444562254 98.17472801357277 C 0.0 **** -0.24
33822 H 3.499992827449912 99.472135706333 97.24185326462997 H 0.0 **** 0.06
33823 H 2.029602227891445 99.49444484968768 98.24531567830806 H 0.0 **** 0.06
33824 H 3.0958564032226166 100.92005630467764 98.19532413034928 H 0.0 **** 0.06
33825 H 3.633394090910457 99.43480508716708 99.01624681352706 H 0.0 **** 0.06
33826 C 58.308781508576146 78.99730815747255 67.76494337561925 C 0.0 **** -0.24
33827 H 57.87141644493124 79.81649001571232 67.19487345961255 H 0.0 **** 0.06
33828 H 57.51472623296851 78.35065576709331 68.13964434606318 H 0.0 **** 0.06
33829 H 58.87501200942614 79.40082160797692 68.60427034942428 H 0.0 **** 0.06
33830 H 58.974131393591705 78.421900754399 67.1217406982506 H 0.0 **** 0.06
33831 C 8.236850616438005 60.336794811244374 46.436720871464786 C 0.0 **** -0.24
33832 H 7.29198745263929 59.85828778338913 46.17895257792452 H 0.0 **** 0.06
33833 H 9.052237295669812 59.83250755358432 45.91924359561722 H 0.0 **** 0.06
33834 H 8.393996372469658 60.27447752169178 47.51353544713754 H 0.0 **** 0.06
33835 H 8.207215416745896 61.38393775575173 46.13505667707267 H 0.0 **** 0.06
33836 C 48.61736322587808 10.36051393376087 86.37229833303013 C 0.0 **** -0.24
33837 H 48.80313645411735 10.755015968804372 85.37302842747255 H 0.0 **** 0.06
33838 H 48.75436917461735 11.153696922350463 87.10698667434616 H 0.0 **** 0.06
33839 H 49.31633788421601 9.549572471546185 86.5783280925778 H 0.0 **** 0.06
33840 H 47.595628495772246 9.98321141630467 86.42955117574155 H 0.0 **** 0.06
33841 C 74.91576596637339 40.61640138523913 68.94533470533895 C 0.0 **** -0.24
33842 H 75.05649967964024 41.55682173128466 68.41346685769469 H 0.0 **** 0.06
33843 H 75.6581720932175 39.89325322174952 68.6077451045995 H 0.0 **** 0.06
33844 H 73.91538949672304 40.232044382404865 68.74428616299497 H 0.0 **** 0.06
33845 H 75.03177773732557 40.78390835731918 70.01640780134016 H 0.0 **** 0.06
33846 C 47.53149900551027 106.01979251056395 17.327556991270967 C 0.0 **** -0.24
33847 H 46.99210835707149 105.68246112954867 16.44255861620195 H 0.0 **** 0.06
33848 H 46.86187878336421 106.00656356354662 18.18758118953815 H 0.0 **** 0.06
33849 H 47.89705950370368 107.03343330972007 17.1654469049937 H 0.0 **** 0.06
33850 H 48.374888078566585 105.35461107949702 17.51338327701012 H 0.0 **** 0.06
33851 C 50.19349404161249 20.120896366974932 54.653850620114554 C 0.0 **** -0.24
33852 H 50.21798771851943 20.883506630640568 53.876271399370665 H 0.0 **** 0.06
33853 H 51.06501896861247 20.232860924493252 55.29936137616147 H 0.0 **** 0.06
33854 H 50.20663134622072 19.13242302950931 54.194169471609996 H 0.0 **** 0.06
33855 H 49.285534664671516 20.233587423780364 55.24526781423668 H 0.0 **** 0.06
33856 C 2.265633468086321 45.3913099374563 64.86560695127214 C 0.0 **** -0.24
33857 H 1.4698258976380316 44.65890573990771 65.00462606002894 H 0.0 **** 0.06
33858 H 2.2698678955880496 46.08586652861095 65.70545816339533 H 0.0 **** 0.06
33859 H 2.094880355178816 45.941707166980564 63.940029206588704 H 0.0 **** 0.06
33860 H 3.2256447693141013 44.8784277413713 64.81304285128418 H 0.0 **** 0.06
33861 C 18.22467514086196 79.43989998181364 106.3821059371465 C 0.0 **** -0.24
33862 H 17.395912985488792 79.07269027189321 106.98646934167616 H 0.0 **** 0.06
33863 H 18.237576140019783 80.52953273293171 106.40612451926938 H 0.0 **** 0.06
33864 H 18.102554080665513 79.10066623059694 105.35290584548706 H 0.0 **** 0.06
33865 H 19.163629449451975 79.05538145180249 106.78041633330692 H 0.0 **** 0.06
33866 C 13.099164657114414 88.92904286126048 10.630296252043696 C 0.0 **** -0.24
33867 H 13.898816751188477 88.60580487637168 9.963774984128703 H 0.0 **** 0.06
33868 H 13.45702252414442 88.91963137718096 11.659268057488621 H 0.0 **** 0.06
33869 H 12.250970245387947 88.25192261360564 10.53346529731447 H 0.0 **** 0.06
33870 H 12.789598085834356 89.93974715919524 10.36242637080548 H 0.0 **** 0.06
33871 C 55.69933519048939 3.3286788076950558 22.310375849753772 C 0.0 **** -0.24
33872 H 55.60370365678179 3.4141871088334597 21.227729172748944 H 0.0 **** 0.06
33873 H 56.04089953939908 2.3257385965654436 22.56570617357546 H 0.0 **** 0.06
33874 H 54.73049687286033 3.511958654128719 22.77568188618664 H 0.0 **** 0.06
33875 H 56.42081293308652 4.061648409304155 22.6700274101526 H 0.0 **** 0.06
33876 C 87.97868968196158 85.12365412049229 34.340446509077566 C 0.0 **** -0.24
33877 H 88.16512422108954 84.73927711659707 35.34294953439105 H 0.0 **** 0.06
33878 H 88.28211222795342 84.37962768051193 33.60393630697544 H 0.0 **** 0.06
33879 H 88.55289355823625 86.039180030404 34.190515882553555 H 0.0 **** 0.06
33880 H 86.91667842166395 85.33839237991918 34.225540544237106 H 0.0 **** 0.06
33881 C 92.88276157823367 38.544812164942016 36.35818631468001 C 0.0 **** -0.24
33882 H 92.81363383775135 39.568902340534464 35.98900666083219 H 0.0 **** 0.06
33883 H 93.80891944775175 38.423938592215734 36.92169508441722 H 0.0 **** 0.06
33884 H 92.87724920141713 37.85424229848138 35.515493200690315 H 0.0 **** 0.06
33885 H 92.03217301132725 38.33414557700189 37.00701493568107 H 0.0 **** 0.06
33886 C 33.68443674319934 63.51782663178716 63.67846023210086 C 0.0 **** -0.24
33887 H 34.119543131353225 64.34212970899966 63.11381812686375 H 0.0 **** 0.06
33888 H 34.03784110465014 62.57071409356803 63.268516146697266 H 0.0 **** 0.06
33889 H 32.59829027461748 63.56145845254568 63.60654423041149 H 0.0 **** 0.06
33890 H 33.983563302319226 63.595833259641495 64.72377651829049 H 0.0 **** 0.06
33891 C 46.65761398144525 101.2848608725761 49.356506809069515 C 0.0 **** -0.24
33892 H 45.87246576767467 102.0251431819212 49.205980398689235 H 0.0 **** 0.06
33893 H 46.26675875532396 100.45564335395484 49.946953594706144 H 0.0 **** 0.06
33894 H 47.49370812424303 101.74385449129358 49.882538389119475 H 0.0 **** 0.06
33895 H 46.99627298244127 100.91298809866741 48.38851885593306 H 0.0 **** 0.06
33896 C 85.21438214458118 107.02443965389651 71.24482594450257 C 0.0 **** -0.24
33897 H 86.27727943458005 107.14334333675288 71.0329600392447 H 0.0 **** 0.06
33898 H 84.99748523675396 107.40965677281811 72.24053689918304 H 0.0 **** 0.06
33899 H 84.95072478115296 105.96767040286464 71.1969048487287 H 0.0 **** 0.06
33900 H 84.63303617532743 107.57824444035997 70.50698650818623 H 0.0 **** 0.06
33901 C 61.61216484306118 39.066808412166665 106.04111882058379 C 0.0 **** -0.24
33902 H 62.307821942724246 39.317033324119734 106.84201428856299 H 0.0 **** 0.06
33903 H 62.14948297935001 38.56252136686879 105.23821930136691 H 0.0 **** 0.06
33904 H 61.15791599158496 39.98029071545852 105.6570772412928 H 0.0 **** 0.06
33905 H 60.83442800132167 38.40897280942994 106.42839335292373 H 0.0 **** 0.06
33906 C 107.39157196911762 54.768213492697015 32.86054800607842 C 0.0 **** -0.24
33907 H 108.44428173896603 55.03924726526537 32.938024944539194 H 0.0 **** 0.06
33908 H 106.87081621797017 55.5059156784298 32.24983546408825 H 0.0 **** 0.06
33909 H 106.94859037729057 54.74422104872327 33.857053711505884 H 0.0 **** 0.06
33910 H 107.30209107094316 53.785506803975416 32.3996429187371 H 0.0 **** 0.06
33911 C 63.51805521629365 47.25797265328044 50.94974411286561 C 0.0 **** -0.24
33912 H 63.53919725121753 47.82169950593227 50.0168100648317 H 0.0 **** 0.06
33913 H 62.74734933039912 46.48872570065356 50.892294373527626 H 0.0 **** 0.06
33914 H 63.298411067119844 47.93327338162076 51.77653140410118 H 0.0 **** 0.06
33915 H 64.48814536725786 46.788265498093445 51.11223765355567 H 0.0 **** 0.06
33916 C 43.03040388965061 88.72588779542127 70.40761993033209 C 0.0 **** -0.24
33917 H 43.426916749813614 88.56900988973584 69.40465646079127 H 0.0 **** 0.06
33918 H 42.83519950690984 89.78728576697597 70.56049064422314 H 0.0 **** 0.06
33919 H 43.755513778703666 88.37972930119685 71.14416986731311 H 0.0 **** 0.06
33920 H 42.10181160847798 88.16553999498174 70.52173671414101 H 0.0 **** 0.06
33921 C 45.25238840145812 6.996007047289538 16.513286484966883 C 0.0 **** -0.24
33922 H 45.084325741383736 6.4585658250988445 15.580539633521951 H 0.0 **** 0.06
33923 H 46.32000806360594 7.016559048376962 16.73319728500229 H 0.0 **** 0.06
33924 H 44.72479780692356 6.49255866998223 17.32303010443478 H 0.0 **** 0.06
33925 H 44.88052471196653 8.016022585804848 16.4173200736291 H 0.0 **** 0.06
33926 C 2.850146128057901 75.0679461788255 35.455131718748476 C 0.0 **** -0.24
33927 H 1.8437865167628757 75.27008984080202 35.086189694666075 H 0.0 **** 0.06
33928 H 2.7970557769645836 74.37101309337254 36.29121157478261 H 0.0 **** 0.06
33929 H 3.309187625422979 75.99907007225835 35.785654040680186 H 0.0 **** 0.06
33930 H 3.4487057341109164 74.63186551209924 34.65438644760113 H 0.0 **** 0.06
33931 C 27.38160869949141 24.432985268324927 0.6501229273799254 C 0.0 **** -0.24
33932 H 27.733072698807206 25.46392634673063 0.5967425139782563 H 0.0 **** 0.06
33933 H 28.217516228001955 23.755219177904934 0.47610968657448893 H 0.0 **** 0.06
33934 H 26.617713567193704 24.270732112320047 -0.10995929054229236 H 0.0 **** 0.06
33935 H 26.958351890944073 24.244856745299188 1.63652658098772 H 0.0 **** 0.06
33936 C 94.54601684830263 8.174316849528338 45.35765543410773 C 0.0 **** -0.24
33937 H 95.25472609099812 8.47781861482025 46.12787405706569 H 0.0 **** 0.06
33938 H 95.04855056123175 8.152467933459775 44.390188948654924 H 0.0 **** 0.06
33939 H 93.72130030447765 8.886432757987507 45.32303699182978 H 0.0 **** 0.06
33940 H 94.15994664461422 7.181835719832463 45.589887781803895 H 0.0 **** 0.06
33941 C 41.87189264910319 98.2564220368356 95.56115990934813 C 0.0 **** -0.24
33942 H 42.17732735271176 97.30373737966087 95.99288367356097 H 0.0 **** 0.06
33943 H 42.47385535446239 98.46320526061047 94.67543222048023 H 0.0 **** 0.06
33944 H 42.01724622309831 99.05047954951563 96.29317141086827 H 0.0 **** 0.06
33945 H 40.81948862142872 98.2078981664728 95.28097412232843 H 0.0 **** 0.06
33946 C 14.651419223576568 52.88425329394266 54.42123934675675 C 0.0 **** -0.24
33947 H 13.760351185839909 53.51292542410181 54.39128824384596 H 0.0 **** 0.06
33948 H 14.826493423997846 52.552603021604256 55.444950248581904 H 0.0 **** 0.06
33949 H 15.51070988519757 53.456764880088514 54.0726451925089 H 0.0 **** 0.06
33950 H 14.505722120250482 52.01735903435457 53.77720244479383 H 0.0 **** 0.06
33951 C 107.1653810689557 55.75548462095168 42.17486893158335 C 0.0 **** -0.24
33952 H 107.11637615208677 54.66678606372085 42.1855374343846 H 0.0 **** 0.06
33953 H 106.68830140233975 56.14916903264674 43.07225816094876 H 0.0 **** 0.06
33954 H 106.64714220074904 56.13318841116285 41.29234001755938 H 0.0 **** 0.06
33955 H 108.20769585884554 56.07235379752274 42.147398198034125 H 0.0 **** 0.06
33956 C 65.50580480920505 12.154029109524657 5.613843167049595 C 0.0 **** -0.24
33957 H 65.17231358330729 11.629153644144537 4.718634693152694 H 0.0 **** 0.06
33958 H 66.21813647610259 11.531126991168605 6.154666059702066 H 0.0 **** 0.06
33959 H 64.64775106386888 12.363846384660008 6.252329139205301 H 0.0 **** 0.06
33960 H 65.98479263592229 13.090368580004451 5.329175156311578 H 0.0 **** 0.06
33961 C 14.950084614215484 68.24583441599935 12.266263869693603 C 0.0 **** -0.24
33962 H 14.976686550035495 69.06389438314079 12.985922870498825 H 0.0 **** 0.06
33963 H 14.164642320979254 68.43270715853836 11.532743635392649 H 0.0 **** 0.06
33964 H 14.745981507225537 67.31031347676225 12.786877303114977 H 0.0 **** 0.06
33965 H 15.9123689596004 68.17646595991528 11.758261155843684 H 0.0 **** 0.06
33966 C 41.24088064243526 91.00455546660662 62.877398027805924 C 0.0 **** -0.24
33967 H 41.83048054588636 91.81363469596248 62.44737527148462 H 0.0 **** 0.06
33968 H 40.26227055244124 91.38507269192034 63.17262145490719 H 0.0 **** 0.06
33969 H 41.75461707069081 90.60552597102924 63.75227986573125 H 0.0 **** 0.06
33970 H 41.11516618609937 90.21400708306464 62.13746762548931 H 0.0 **** 0.06
33971 C 47.73582181277723 34.93822062937327 37.745709435641366 C 0.0 **** -0.24
33972 H 47.06271278646037 34.165107934707365 38.11572273658494 H 0.0 **** 0.06
33973 H 47.339096168151286 35.35193000821717 36.81777180249077 H 0.0 **** 0.06
33974 H 48.719041091276864 34.504375139117 37.55895052837822 H 0.0 **** 0.06
33975 H 47.82353421344638 35.73031337123251 38.48882412922267 H 0.0 **** 0.06
33976 C 49.56084059608688 100.4426515329887 47.46107319446506 C 0.0 **** -0.24
33977 H 49.43209617790056 99.40064319509187 47.75564307187071 H 0.0 **** 0.06
33978 H 50.59228471196184 100.60696365277025 47.14920715254096 H 0.0 **** 0.06
33979 H 49.328301094413206 101.09018934064285 48.30620040810775 H 0.0 **** 0.06
33980 H 48.88921272077324 100.67027648865282 46.63258795103882 H 0.0 **** 0.06
33981 C 1.270960869041751 76.15595195117618 26.093653496781158 C 0.0 **** -0.24
33982 H 0.7821011545972505 75.43631485315703 25.43611220869394 H 0.0 **** 0.06
33983 H 2.352773460305974 76.06730436445218 25.98739412669829 H 0.0 **** 0.06
33984 H 0.9887544747598902 75.95330588238744 27.126704306336094 H 0.0 **** 0.06
33985 H 0.9596753625980252 77.16476331543618 25.822349546900625 H 0.0 **** 0.06
33986 C 34.663573928537744 3.513193032439574 92.09557014573934 C 0.0 **** -0.24
33987 H 35.708512516387145 3.815459438762417 92.16681087969695 H 0.0 **** 0.06
33988 H 34.54805451291716 2.7950151845895874 91.28266621679735 H 0.0 **** 0.06
33989 H 34.04438371235557 4.387862241961187 91.89825294558449 H 0.0 **** 0.06
33990 H 34.35448341632389 3.0519727089438504 93.03326983327638 H 0.0 **** 0.06
33991 C 94.28510201458812 14.40344281540331 49.3769564286259 C 0.0 **** -0.24
33992 H 93.75531591021779 15.355956167291197 49.38025106872499 H 0.0 **** 0.06
33993 H 95.01171931103049 14.389859215105162 50.18970896441533 H 0.0 **** 0.06
33994 H 94.80152831807185 14.278989905980325 48.42448633816352 H 0.0 **** 0.06
33995 H 93.57276784186713 13.590329673411588 49.51224444454277 H 0.0 **** 0.06
33996 C 8.721007292969983 65.40622212378236 14.080076184406806 C 0.0 **** -0.24
33997 H 7.675898507036008 65.3652346503219 14.389878710965021 H 0.0 **** 0.06
33998 H 9.293310905011694 65.9788511146071 14.809452249456214 H 0.0 **** 0.06
33999 H 8.790485656549656 65.88721820200806 13.104808859605868 H 0.0 **** 0.06
34000 H 9.120236219249076 64.39506347171579 14.016019955925458 H 0.0 **** 0.06
34001 C 78.48435252644859 53.00468828408577 66.03234988914349 C 0.0 **** -0.24
34002 H 78.92257071938364 53.076013467482994 65.03683775957711 H 0.0 **** 0.06
34003 H 77.54555704268475 52.45346209551798 65.97652335415376 H 0.0 **** 0.06
34004 H 78.29491605192275 54.006577151021844 66.4190001658088 H 0.0 **** 0.06
34005 H 79.17312110104781 52.48337091505209 66.69704448765242 H 0.0 **** 0.06
34006 C 88.50984650010182 72.69945723376199 72.28352645217461 C 0.0 **** -0.24
34007 H 87.92355052519285 72.77562683607195 73.19933161257971 H 0.0 **** 0.06
34008 H 88.99854657128536 71.72553127982162 72.24550836704452 H 0.0 **** 0.06
34009 H 89.26426040374386 73.4855605634736 72.26872640275514 H 0.0 **** 0.06
34010 H 87.85209845690615 72.81023578532763 71.42114804787151 H 0.0 **** 0.06
34011 C 28.71835672005693 10.452447286797755 36.7444927647164 C 0.0 **** -0.24
34012 H 28.09746058534813 10.01830753297926 35.96189743808881 H 0.0 **** 0.06
34013 H 29.754176194021994 10.490433038795793 36.407656083926675 H 0.0 **** 0.06
34014 H 28.650072753346166 9.840498004079036 37.64333323270455 H 0.0 **** 0.06
34015 H 28.37018457151899 11.4620795329879 36.965643876981474 H 0.0 **** 0.06
34016 C 105.41236936187238 22.239226061637993 100.36864020278585 C 0.0 **** -0.24
34017 H 105.16743854589946 23.02575119279787 101.08219115414879 H 0.0 **** 0.06
34018 H 106.49382883097317 22.107506568188114 100.3297008802287 H 0.0 **** 0.06
34019 H 105.04338461591185 22.5171826769741 99.38098374488288 H 0.0 **** 0.06
34020 H 104.94363440539537 21.305705487243003 100.68160472392938 H 0.0 **** 0.06
34021 C 82.81188459319625 23.02868387807573 80.24165210767791 C 0.0 **** -0.24
34022 H 82.45335633236772 23.05723462829588 81.27123564895112 H 0.0 **** 0.06
34023 H 82.87516578831469 21.992765654683907 79.90839576115323 H 0.0 **** 0.06
34024 H 83.79782261114065 23.489252339032618 80.18762681738662 H 0.0 **** 0.06
34025 H 82.11977379083802 23.574353177424715 79.60099582521411 H 0.0 **** 0.06
34026 C 30.27119000200696 24.99728336022784 39.95603846403202 C 0.0 **** -0.24
34027 H 29.27381201698296 25.238777700543935 39.58744852459614 H 0.0 **** 0.06
34028 H 31.0174198828131 25.383262404262126 39.26032509434441 H 0.0 **** 0.06
34029 H 30.376342457260648 23.91592658799543 40.039508929997055 H 0.0 **** 0.06
34030 H 30.416877183009206 25.452914294747217 40.93518274995259 H 0.0 **** 0.06
34031 C 40.467396407916965 56.96122928714054 27.82810094662608 C 0.0 **** -0.24
34032 H 39.82587633776217 57.25050419461744 26.995193428679556 H 0.0 **** 0.06
34033 H 40.061851965596645 56.069969850136424 28.30713559419476 H 0.0 **** 0.06
34034 H 40.51209267733742 57.774674353721785 28.55104710178057 H 0.0 **** 0.06
34035 H 41.470933278166854 56.74928920360834 27.456306487182104 H 0.0 **** 0.06
34036 C 88.0785003933675 100.86802024914374 9.512353300194974 C 0.0 **** -0.24
34037 H 87.2450066004991 100.34282969121756 9.978084774076052 H 0.0 **** 0.06
34038 H 88.43494794422847 101.65120343480783 10.181549169884121 H 0.0 **** 0.06
34039 H 87.74781767051485 101.31303853309939 8.574104128955412 H 0.0 **** 0.06
34040 H 88.88668195274607 100.16300205949364 9.31434610917205 H 0.0 **** 0.06
34041 C 78.05525193409017 53.78434420520654 107.97013126198684 C 0.0 **** -0.24
34042 H 78.49890704852419 53.68630415817 106.98020446295712 H 0.0 **** 0.06
34043 H 77.05060473769004 53.361142362007 107.9619402391414 H 0.0 **** 0.06
34044 H 78.00415770879647 54.83852577772518 108.24235075282846 H 0.0 **** 0.06
34045 H 78.66835554698775 53.25138216053364 108.69743128407106 H 0.0 **** 0.06
34046 C 94.40712236356961 108.44880231246213 63.756061541858 C 0.0 **** -0.24
34047 H 94.9216323311114 109.40274013045976 63.631646511439385 H 0.0 **** 0.06
34048 H 94.70734286095717 107.99658284207683 64.70119436712105 H 0.0 **** 0.06
34049 H 94.67193377103024 107.7844025057758 62.93427652236869 H 0.0 **** 0.06
34050 H 93.3301396705589 108.61540117651484 63.75745377290008 H 0.0 **** 0.06
34051 C 52.018808731694435 59.86657335497793 27.050930738558634 C 0.0 **** -0.24
34052 H 52.93731480080703 59.39200905897613 27.39661875728865 H 0.0 **** 0.06
34053 H 52.263314908084965 60.6492249274545 26.331824226664537 H 0.0 **** 0.06
34054 H 51.49511586345034 60.3046710481504 27.900043221334613 H 0.0 **** 0.06
34055 H 51.38159875065702 59.121630888211115 26.575153493602556 H 0.0 **** 0.06
34056 C 35.48163463886851 20.524791263513293 104.2569869776902 C 0.0 **** -0.24
34057 H 34.925392637818646 21.243882313793222 103.65710142638481 H 0.0 **** 0.06
34058 H 34.85709811935115 20.17762517962035 105.08098259690254 H 0.0 **** 0.06
34059 H 36.37778064956795 21.00177728681038 104.65628964511048 H 0.0 **** 0.06
34060 H 35.76794339338089 19.676958733642664 103.63499811932432 H 0.0 **** 0.06
34061 C 107.80087744284697 21.608099263478856 1.6180468232482497 C 0.0 **** -0.24
34062 H 108.8889181753672 21.659864948994148 1.5778405697877531 H 0.0 **** 0.06
34063 H 107.42400517755098 22.393038469793616 2.273421205057872 H 0.0 **** 0.06
34064 H 107.49722347514171 20.635198593427088 2.0027848525165552 H 0.0 **** 0.06
34065 H 107.39410209547276 21.74520974076671 0.6162387646191263 H 0.0 **** 0.06
34066 C 21.835816663230986 63.861982936723436 49.864578958925186 C 0.0 **** -0.24
34067 H 21.247373954463484 64.02372247239742 50.76793901080122 H 0.0 **** 0.06
34068 H 21.291891389461853 64.2507092177349 49.00331124783595 H 0.0 **** 0.06
34069 H 22.011766094570675 62.79476035373119 49.73172342440452 H 0.0 **** 0.06
34070 H 22.790195832983386 64.37959287449837 49.95567870800725 H 0.0 **** 0.06
34071 C 32.30038168721181 74.00395034336628 40.37760064121435 C 0.0 **** -0.24
34072 H 32.42325681239805 73.11869015440357 41.000446445827144 H 0.0 **** 0.06
34073 H 32.855633546941846 74.83508014647094 40.81366662485984 H 0.0 **** 0.06
34074 H 31.243154827660987 74.26451098388037 40.319769627761964 H 0.0 **** 0.06
34075 H 32.679723524781366 73.79891190401133 39.37658622300398 H 0.0 **** 0.06
34076 C 95.92677806522475 102.9334333287802 0.7157326201586045 C 0.0 **** -0.24
34077 H 96.63313825948721 103.36154605771145 1.4270466401925717 H 0.0 **** 0.06
34078 H 96.47335033168632 102.39206035764639 -0.05641692749273375 H 0.0 **** 0.06
34079 H 95.3452251533687 103.73271191453016 0.2568592255890678 H 0.0 **** 0.06
34080 H 95.25746031643533 102.24933228218451 1.2364775919354543 H 0.0 **** 0.06
34081 C 48.76804039657937 52.48240442571417 78.25211978427183 C 0.0 **** -0.24
34082 H 48.275486775116185 52.717785326745016 77.3089911635979 H 0.0 **** 0.06
34083 H 49.733325455362554 52.016891790004976 78.05121522695539 H 0.0 **** 0.06
34084 H 48.145199368866955 51.795469154795995 78.82486216818735 H 0.0 **** 0.06
34085 H 48.91711463905119 53.39878404279114 78.82220405427097 H 0.0 **** 0.06
34086 C 22.955091057307868 9.336375137849501 72.22184353467645 C 0.0 **** -0.24
34087 H 23.61585251664195 10.201500858454324 72.17119157985343 H 0.0 **** 0.06
34088 H 22.40052483179352 9.24805864729828 71.28686950692389 H 0.0 **** 0.06
34089 H 22.255245862007428 9.461965044747728 73.04915474289186 H 0.0 **** 0.06
34090 H 23.547235286476734 8.435086513574532 72.38086522486242 H 0.0 **** 0.06
34091 C 81.9276503045217 23.590079485387083 18.296506955010614 C 0.0 **** -0.24
34092 H 81.35733580530615 24.261684954977767 18.937298083408507 H 0.0 **** 0.06
34093 H 81.89414938383324 22.58002261033875 18.707163446047048 H 0.0 **** 0.06
34094 H 82.96336876447083 23.927735822943177 18.246713508368828 H 0.0 **** 0.06
34095 H 81.4973855593831 23.589098273545055 17.29525417647511 H 0.0 **** 0.06
34096 C 18.59353081439974 76.08724579898109 47.870203668471845 C 0.0 **** -0.24
34097 H 19.11633227211368 76.96816742048895 48.24346044840473 H 0.0 **** 0.06
34098 H 18.878804937303926 75.21756707945303 48.46265492686342 H 0.0 **** 0.06
34099 H 18.861842432561446 75.92053023778072 46.826587023773925 H 0.0 **** 0.06
34100 H 17.517045314961678 76.24409443123545 47.94842393858039 H 0.0 **** 0.06
34101 C 81.94831850976544 14.035980677934205 79.05817508598571 C 0.0 **** -0.24
34102 H 80.99224988660404 13.535949093605538 79.2098491323257 H 0.0 **** 0.06
34103 H 81.90761497729335 14.62704772644554 78.1433134438179 H 0.0 **** 0.06
34104 H 82.73956037974432 13.290595762181823 78.97442234065556 H 0.0 **** 0.06
34105 H 82.15469757022166 14.690503719653407 79.90461593005438 H 0.0 **** 0.06
34106 C 50.52079370267461 36.965604826022854 50.017674347183345 C 0.0 **** -0.24
34107 H 50.998371941168415 37.93827395546663 50.14018845761808 H 0.0 **** 0.06
34108 H 50.82791023528166 36.528261887142094 49.06803050954147 H 0.0 **** 0.06
34109 H 49.437926058317224 37.08992369854519 50.02930837252569 H 0.0 **** 0.06
34110 H 50.81997828404197 36.308781445761326 50.83417754505638 H 0.0 **** 0.06
34111 C 8.410268153912853 81.66918659423578 73.90630130507384 C 0.0 **** -0.24
34112 H 7.396617017737611 81.78513998097714 73.52545232661191 H 0.0 **** 0.06
34113 H 8.372335401984657 81.37420923386082 74.95560316584567 H 0.0 **** 0.06
34114 H 8.944390170560808 82.61475752648505 73.81288210196715 H 0.0 **** 0.06
34115 H 8.929165317328653 80.90195252449692 73.33195170476381 H 0.0 **** 0.06
34116 C 92.75854160866282 12.358431623463414 93.27438920532248 C 0.0 **** -0.24
34117 H 92.35160166947418 11.464572426550038 92.80103044857763 H 0.0 **** 0.06
34118 H 93.75913638039879 12.146821612841261 93.65038140161832 H 0.0 **** 0.06
34119 H 92.11443396079775 12.657497852744449 94.10088636661706 H 0.0 **** 0.06
34120 H 92.80831926709683 13.166106615914476 92.54227084811508 H 0.0 **** 0.06
34121 C 1.3498196016427642 19.190947948761448 103.5192958084934 C 0.0 **** -0.24
34122 H 1.153595934329303 20.12820476420285 102.9981136699612 H 0.0 **** 0.06
34123 H 0.6162849897814908 18.44484883924457 103.2117295289364 H 0.0 **** 0.06
34124 H 1.275338834935269 19.35188546786344 104.59509487329251 H 0.0 **** 0.06
34125 H 2.3520002239365567 18.841030174849607 103.27209668656303 H 0.0 **** 0.06
34126 C 89.4382775026738 70.76261032057835 48.52347499697072 C 0.0 **** -0.24
34127 H 88.6895695709163 70.1232115976195 48.054921253337795 H 0.0 **** 0.06
34128 H 89.13456948694629 70.98797136518266 49.54647537629489 H 0.0 **** 0.06
34129 H 89.52954297922504 71.68960964932012 47.958833836508234 H 0.0 **** 0.06
34130 H 90.39962020722339 70.24757031281143 48.534471846221464 H 0.0 **** 0.06
34131 C 4.8656066121333765 87.12351323898996 53.38140414893228 C 0.0 **** -0.24
34132 H 4.416277758590752 88.00029063609519 52.91418270071611 H 0.0 **** 0.06
34133 H 4.616362897834733 87.10990597412888 54.44263423571231 H 0.0 **** 0.06
34134 H 5.948199565512283 87.16327846825973 53.26239125112881 H 0.0 **** 0.06
34135 H 4.479860925534581 86.22166208809125 52.90548750029235 H 0.0 **** 0.06
34136 C 48.26876320805991 79.40261962526058 80.64815865713501 C 0.0 **** -0.24
34137 H 47.49824042855761 79.09033511178788 79.94385343129954 H 0.0 **** 0.06
34138 H 49.24304013402269 79.0615754467095 80.29473494725605 H 0.0 **** 0.06
34139 H 48.06461163432277 78.96826497107674 81.62680723158985 H 0.0 **** 0.06
34140 H 48.27062873410199 80.48958785021327 80.72571142704248 H 0.0 **** 0.06
34141 C 71.75249848853295 107.81211506060686 93.51044292054405 C 0.0 **** -0.24
34142 H 71.74690312699713 107.05578908857325 94.29590050943546 H 0.0 **** 0.06
34143 H 70.82543176351243 107.74919009487107 92.94054503144116 H 0.0 **** 0.06
34144 H 72.59954602159179 107.64020093829953 92.84751321370697 H 0.0 **** 0.06
34145 H 71.83717915116927 108.80108923843216 93.96032857410535 H 0.0 **** 0.06
34146 C 34.19721093518609 40.35223719110667 43.75004937151903 C 0.0 **** -0.24
34147 H 33.25137378665073 40.51110307771444 44.267135958436256 H 0.0 **** 0.06
34148 H 34.65778138363282 39.431346563451086 44.10841120164644 H 0.0 **** 0.06
34149 H 34.863583365680455 41.19189397624433 43.947721151817376 H 0.0 **** 0.06
34150 H 34.016767800504596 40.276202682764165 42.678346599367636 H 0.0 **** 0.06
34151 C 18.886490923360043 5.6876908356312015 15.632667962574473 C 0.0 **** -0.24
34152 H 17.899767634301554 6.059306366332976 15.356051046590153 H 0.0 **** 0.06
34153 H 19.07196125708498 5.901852544581118 16.68624590913757 H 0.0 **** 0.06
34154 H 19.643793025001003 6.179186595292947 15.02279727576763 H 0.0 **** 0.06
34155 H 18.92844855301564 4.611402341008954 15.46858735335914 H 0.0 **** 0.06
34156 C 12.760942452379737 83.84352236494834 15.157756485880554 C 0.0 **** -0.24
34157 H 12.239367604355067 83.54428656830493 14.248823891389407 H 0.0 **** 0.06
34158 H 12.895734100612515 82.97421059975369 15.802133067438831 H 0.0 **** 0.06
34159 H 12.174449709009139 84.59779265073206 15.681086587594308 H 0.0 **** 0.06
34160 H 13.73560873115784 84.2572747900058 14.896190982803603 H 0.0 **** 0.06
34161 C 60.445388707203975 91.1475167710402 54.92870682276412 C 0.0 **** -0.24
34162 H 59.651226636598366 90.4032983812598 54.86983872307448 H 0.0 **** 0.06
34163 H 60.022016967675896 92.14163640576253 54.78345390267224 H 0.0 **** 0.06
34164 H 61.18623551055039 90.95090077656604 54.15413533037395 H 0.0 **** 0.06
34165 H 60.920802588061605 91.09418976807984 55.90857302813879 H 0.0 **** 0.06
34166 C 73.97861350964513 92.9671283697194 100.53220192844628 C 0.0 **** -0.24
34167 H 74.68651911095563 92.46305525227145 99.87386398991383 H 0.0 **** 0.06
34168 H 74.47952159262366 93.79114977579918 101.04147566269488 H 0.0 **** 0.06
34169 H 73.60241534103338 92.25804217405641 101.26978214834783 H 0.0 **** 0.06
34170 H 73.147427201107 93.35454763471853 99.94362358907232 H 0.0 **** 0.06
34171 C 30.191534931603286 14.545023552567102 17.436098750486735 C 0.0 **** -0.24
34172 H 29.652051546050785 13.674728842394018 17.81031884211589 H 0.0 **** 0.06
34173 H 30.695934423838118 15.043088819083266 18.263179114736317 H 0.0 **** 0.06
34174 H 29.487314478482283 15.234925033977717 16.97005431965819 H 0.0 **** 0.06
34175 H 30.928180674164523 14.226052194869652 16.6985526846602 H 0.0 **** 0.06
34176 C 108.8707938953064 79.07175980445408 29.0140007472059 C 0.0 **** -0.24
34177 H 108.12123407216342 79.01611328608806 28.22419290279862 H 0.0 **** 0.06
34178 H 108.37491751809485 79.20782423507927 29.975556256178834 H 0.0 **** 0.06
34179 H 109.53517353186459 79.91407642181588 28.825694636088144 H 0.0 **** 0.06
34180 H 109.44963406335172 78.14873908631876 29.03048216298305 H 0.0 **** 0.06
34181 C 66.86992815751819 24.476758653196082 30.90664552998838 C 0.0 **** -0.24
34182 H 66.53193049828522 24.68341721099631 29.89067764780927 H 0.0 **** 0.06
34183 H 67.14114938221468 23.42459584176599 30.991682673559133 H 0.0 **** 0.06
34184 H 66.06804617445653 24.70439218580597 31.608988839321697 H 0.0 **** 0.06
34185 H 67.73810414061637 25.09560399102449 31.132436921898318 H 0.0 **** 0.06
34186 C 97.41810016678261 59.57404517748634 46.03410461192885 C 0.0 **** -0.24
34187 H 98.31912333386947 60.01022913731252 46.46673000003631 H 0.0 **** 0.06
34188 H 96.57650215255323 59.7383268445776 46.706701934144064 H 0.0 **** 0.06
34189 H 97.56657387479754 58.504275204547184 45.89023112842341 H 0.0 **** 0.06
34190 H 97.2128394697341 60.045356770458525 45.0728630713636 H 0.0 **** 0.06
34191 C 66.5538164566713 14.784226164801481 57.19534083475665 C 0.0 **** -0.24
34192 H 67.09212927940185 15.021407909217032 58.11382331406565 H 0.0 **** 0.06
34193 H 66.56486530802309 13.70560829418443 57.037067970700065 H 0.0 **** 0.06
34194 H 67.03436204009127 15.281145202972425 56.35348087033438 H 0.0 **** 0.06
34195 H 65.52283221899341 15.128608312548664 57.27978803049681 H 0.0 **** 0.06
34196 C 58.29730515524342 53.559612783291755 10.164661956255943 C 0.0 **** -0.24
34197 H 59.25037025550036 53.680488714273 9.650183809010072 H 0.0 **** 0.06
34198 H 58.476990413979216 53.26499896226659 11.198635249752954 H 0.0 **** 0.06
34199 H 57.709641156454175 52.78943994411759 9.664357327856123 H 0.0 **** 0.06
34200 H 57.75087451553171 54.502601812519174 10.144885323765774 H 0.0 **** 0.06
34201 C 7.98633032834212 2.9100184092561676 82.83356479719504 C 0.0 **** -0.24
34202 H 7.493757437904222 2.2572330197899646 83.55452184703068 H 0.0 **** 0.06
34203 H 7.77971795746646 2.5567676166405704 81.82332815828838 H 0.0 **** 0.06
34204 H 9.061863795888186 2.8987896353796714 83.00931041568602 H 0.0 **** 0.06
34205 H 7.609333077884088 3.926795262147948 82.94768233142742 H 0.0 **** 0.06
34206 C 4.134230160134734 86.44265160030908 49.63925890576708 C 0.0 **** -0.24
34207 H 4.013452925152592 85.35910115807583 49.62636711520323 H 0.0 **** 0.06
34208 H 4.134977995351321 86.79464155897219 50.67110647109059 H 0.0 **** 0.06
34209 H 3.310274101344703 86.90671478302275 49.09727861652327 H 0.0 **** 0.06
34210 H 5.078001731234849 86.708506593756 49.16408824041089 H 0.0 **** 0.06
34211 C 108.54127498628203 39.08982629644965 28.1059074530541 C 0.0 **** -0.24
34212 H 108.32920425907396 39.883861722430076 28.82150411644193 H 0.0 **** 0.06
34213 H 109.03385652073425 38.26199258866352 28.61841381558338 H 0.0 **** 0.06
34214 H 109.19414058462714 39.471812410210994 27.321161649434032 H 0.0 **** 0.06
34215 H 107.60757392407481 38.73932389983909 27.664431143954687 H 0.0 **** 0.06
34216 C 28.54381588524518 36.532428392868994 60.226520954855744 C 0.0 **** -0.24
34217 H 29.352127606860336 37.15228716081904 60.61550832165568 H 0.0 **** 0.06
34218 H 27.859657512878073 37.15025013560489 59.64469324080983 H 0.0 **** 0.06
34219 H 28.005707506934755 36.07484779139376 61.056828272649284 H 0.0 **** 0.06
34220 H 28.959792286314155 35.75137912250579 59.588939895110684 H 0.0 **** 0.06
34221 C 109.03005450202625 57.90930146085643 88.3871918844239 C 0.0 **** -0.24
34222 H 109.00038634614377 57.84059710982984 89.47427069401935 H 0.0 **** 0.06
34223 H 109.5071632041417 58.845096804567795 88.09559072191077 H 0.0 **** 0.06
34224 H 108.01330637156012 57.881783708558046 87.99461207966804 H 0.0 **** 0.06
34225 H 109.59733665236207 57.069925440661464 87.98522084814817 H 0.0 **** 0.06
34226 C 7.969696714751748 50.15570717924527 30.136888842726222 C 0.0 **** -0.24
34227 H 8.165613983439975 51.18579657345384 29.838189736346862 H 0.0 **** 0.06
34228 H 8.348095493220775 49.47765680444769 29.37088035941062 H 0.0 **** 0.06
34229 H 6.895971768623729 50.00971916505969 30.252880569932074 H 0.0 **** 0.06
34230 H 8.4695550100364 49.94991065186443 31.08342903710863 H 0.0 **** 0.06
34231 C 15.167562773001226 106.02546179731172 38.63083492079261 C 0.0 **** -0.24
34232 H 15.064707031133086 105.37836830580315 39.50139826008808 H 0.0 **** 0.06
34233 H 15.185019497166003 105.41699748754942 37.72619612568573 H 0.0 **** 0.06
34234 H 16.095188277934028 106.59154871530208 38.70725691943126 H 0.0 **** 0.06
34235 H 14.323978410967324 106.71395738692804 38.58894128736432 H 0.0 **** 0.06
34236 C 17.983055292523304 4.3635769318955795 90.74395582715607 C 0.0 **** -0.24
34237 H 18.10283022010313 3.8806840039299573 91.7131375376026 H 0.0 **** 0.06
34238 H 18.900297739884536 4.892445475258285 90.4858779377318 H 0.0 **** 0.06
34239 H 17.155830504577025 5.071426535656087 90.7901718583746 H 0.0 **** 0.06
34240 H 17.772710060963874 3.6089778349348762 89.98558917205685 H 0.0 **** 0.06
34241 C 21.628845691564862 48.57414712743798 51.229252606029334 C 0.0 **** -0.24
34242 H 20.719354727569918 48.345613269724254 50.67357524514049 H 0.0 **** 0.06
34243 H 22.47793743618857 48.08496929523392 50.75070148178583 H 0.0 **** 0.06
34244 H 21.529885373146524 48.21234295334045 52.25289633315501 H 0.0 **** 0.06
34245 H 21.787863738441647 49.652576552670325 51.23853230336063 H 0.0 **** 0.06
34246 C 64.32294093163563 86.6462507556825 85.13238849886662 C 0.0 **** -0.24
34247 H 64.22392118366466 85.60690914083011 85.44366153372567 H 0.0 **** 0.06
34248 H 63.764624568270676 86.8038473148103 84.2091241438169 H 0.0 **** 0.06
34249 H 65.37563632447439 86.87769970295948 84.96500648131064 H 0.0 **** 0.06
34250 H 63.928567273951955 87.29872789549609 85.91228332021399 H 0.0 **** 0.06
34251 C 92.6402358993683 51.0496060007703 103.70430309675929 C 0.0 **** -0.24
34252 H 93.20907521656885 51.69532025832242 103.03607054706272 H 0.0 **** 0.06
34253 H 92.9166090183894 51.26086625890027 104.7368198357378 H 0.0 **** 0.06
34254 H 92.85941190238819 50.006046978206605 103.47441095094007 H 0.0 **** 0.06
34255 H 91.57425916289009 51.23484741815357 103.56752905456611 H 0.0 **** 0.06
34256 C 21.877564441840946 0.6527209102295899 86.92727854399074 C 0.0 **** -0.24
34257 H 21.52615585510182 0.7288975918601466 85.89796177281127 H 0.0 **** 0.06
34258 H 22.5505332411563 -0.2007083924891333 87.01911732147641 H 0.0 **** 0.06
34259 H 21.025225018132232 0.5167560406932523 87.59300816438032 H 0.0 **** 0.06
34260 H 22.407904682571427 1.5656664896790744 87.19817051852954 H 0.0 **** 0.06
34261 C 22.080923527087407 32.112815239523016 30.76954783733735 C 0.0 **** -0.24
34262 H 21.360245076308786 32.873787404287214 30.47074057420445 H 0.0 **** 0.06
34263 H 23.00705548899046 32.25125232994561 30.21162971860312 H 0.0 **** 0.06
34264 H 21.672897767921796 31.1243408930047 30.55896222513058 H 0.0 **** 0.06
34265 H 22.282261241466102 32.202382121549164 31.837332362642698 H 0.0 **** 0.06
34266 C 95.95305566736307 103.55738573653274 25.291793101263607 C 0.0 **** -0.24
34267 H 96.42513207475365 103.48883098769947 24.311423781090866 H 0.0 **** 0.06
34268 H 96.68282534484935 103.30945329677071 26.06382009784297 H 0.0 **** 0.06
34269 H 95.11846167703982 102.85813895722093 25.342178344842438 H 0.0 **** 0.06
34270 H 95.58752910021616 104.57202979274203 25.44883645517455 H 0.0 **** 0.06
34271 C 32.83482771295334 37.9492654108102 64.89380551302516 C 0.0 **** -0.24
34272 H 32.15545830136432 37.64003973706866 64.09937140130752 H 0.0 **** 0.06
34273 H 33.86216479423098 37.73958592499028 64.59413744371386 H 0.0 **** 0.06
34274 H 32.602784910746095 37.39807917491973 65.80584761865225 H 0.0 **** 0.06
34275 H 32.71954155041726 39.017363808223536 65.07507802094203 H 0.0 **** 0.06
34276 C 29.754204281122043 20.114572618069985 5.6921071856756384 C 0.0 **** -0.24
34277 H 29.881150074529018 19.168063975765108 5.166885321610778 H 0.0 **** 0.06
34278 H 30.701571596742667 20.653755000885738 5.702756234862306 H 0.0 **** 0.06
34279 H 29.433250078990994 19.92206527678188 6.716275741666607 H 0.0 **** 0.06
34280 H 28.999464128482316 20.714381561722064 5.182208704878178 H 0.0 **** 0.06
34281 C 26.383245603445403 47.4238096860976 3.8913879253107098 C 0.0 **** -0.24
34282 H 25.874062932280964 47.20232074683318 4.82939406832611 H 0.0 **** 0.06
34283 H 26.541240458420233 46.498816455538645 3.336473488222083 H 0.0 **** 0.06
34284 H 27.34578873282797 47.88972726954455 4.102422028983398 H 0.0 **** 0.06
34285 H 25.773104155900867 48.10422959549433 3.2979732400689556 H 0.0 **** 0.06
34286 C 77.81509404633914 22.507646794326945 89.51087006215799 C 0.0 **** -0.24
34287 H 78.59075793334694 21.938031421038772 90.02288640259681 H 0.0 **** 0.06
34288 H 76.87922981740684 21.949947289162367 89.53613349151281 H 0.0 **** 0.06
34289 H 78.11179030526417 22.673978308971527 88.47533251235275 H 0.0 **** 0.06
34290 H 77.68150423716895 23.467459723344803 90.00955809226629 H 0.0 **** 0.06
34291 C 13.504058381669523 64.45357710966914 0.4634022482512137 C 0.0 **** -0.24
34292 H 12.88902255740117 63.61263090033805 0.1411906259543798 H 0.0 **** 0.06
34293 H 14.55722666889518 64.2030649854039 0.3335980467591071 H 0.0 **** 0.06
34294 H 13.30763215515443 64.6643080964958 1.5140853564054169 H 0.0 **** 0.06
34295 H 13.261684936892937 65.33122033352635 -0.13547363708448756 H 0.0 **** 0.06
34296 C 57.354159967040744 14.09181704848595 22.556138421621796 C 0.0 **** -0.24
34297 H 57.32083873638469 15.09564787293786 22.13185400103859 H 0.0 **** 0.06
34298 H 56.6325406556684 14.019141917710954 23.370752951928154 H 0.0 **** 0.06
34299 H 58.3556845790987 13.89307250419489 22.938423590231423 H 0.0 **** 0.06
34300 H 57.1069704391119 13.362855933747738 21.784838960643555 H 0.0 **** 0.06
34301 C 105.31393724838064 33.77878240046226 83.05130284268347 C 0.0 **** -0.24
34302 H 105.95039660828809 33.255820244332995 82.33707111612449 H 0.0 **** 0.06
34303 H 104.4750170948033 33.138196615650884 83.3261241826686 H 0.0 **** 0.06
34304 H 104.93864749827196 34.69572885147534 82.59880909950286 H 0.0 **** 0.06
34305 H 105.89232343073178 34.02208060293776 83.94190893556697 H 0.0 **** 0.06
34306 C 57.08627625568824 11.356928612442374 88.89351980979187 C 0.0 **** -0.24
34307 H 56.0962949392072 11.715029143321487 89.1786179320802 H 0.0 **** 0.06
34308 H 57.00864309512402 10.337304518345462 88.51614776414928 H 0.0 **** 0.06
34309 H 57.74189681075016 11.373385483539835 89.76437900761967 H 0.0 **** 0.06
34310 H 57.495936076893976 12.002342687142914 88.11747065311118 H 0.0 **** 0.06
34311 C 72.39245407183142 14.49732844739853 52.350356938051846 C 0.0 **** -0.24
34312 H 71.35960782820354 14.83659835007299 52.2624165711573 H 0.0 **** 0.06
34313 H 73.05869235046828 15.360475469596452 52.3560734426307 H 0.0 **** 0.06
34314 H 72.63683652020438 13.85424470155273 51.505820793341115 H 0.0 **** 0.06
34315 H 72.51261606662126 13.939020343045428 53.279038284584345 H 0.0 **** 0.06
34316 C 43.58571794065425 1.70958928025496 85.5919753483671 C 0.0 **** -0.24
34317 H 43.138268289443126 0.7514507404370647 85.32541715489916 H 0.0 **** 0.06
34318 H 43.189285780744044 2.0409231334021456 86.55205207065575 H 0.0 **** 0.06
34319 H 43.34745557861618 2.446575942341127 84.82537601049711 H 0.0 **** 0.06
34320 H 44.6666973441433 1.59631665112056 85.66475331056353 H 0.0 **** 0.06
34321 C 19.407617043337467 28.034500399672652 3.6242183544058832 C 0.0 **** -0.24
34322 H 19.94312601078761 28.858750999186242 3.1547176798933663 H 0.0 **** 0.06
34323 H 19.73896047104688 27.927303388152893 4.657047087848383 H 0.0 **** 0.06
34324 H 19.610475742682638 27.112458512616726 3.0793771178643965 H 0.0 **** 0.06
34325 H 18.336409366906437 28.238986182074115 3.6050188833069967 H 0.0 **** 0.06
34326 C 44.69453822356789 101.5428071032003 25.59507886083827 C 0.0 **** -0.24
34327 H 44.35873811077687 102.49309404758847 26.011651702262782 H 0.0 **** 0.06
34328 H 45.77837134312589 101.47004661664168 25.68475349647565 H 0.0 **** 0.06
34329 H 44.41216989328174 101.4877520557139 24.544499567908645 H 0.0 **** 0.06
34330 H 44.22931441940807 100.72316203189058 26.14160569000171 H 0.0 **** 0.06
34331 C 60.51559503323699 33.9555331353925 30.653250125129915 C 0.0 **** -0.24
34332 H 61.33556708205418 33.237682828420134 30.67777862517096 H 0.0 **** 0.06
34333 H 59.93217012785931 33.80966885946668 29.744339326349433 H 0.0 **** 0.06
34334 H 60.918338500867804 34.96773325663051 30.670379771250055 H 0.0 **** 0.06
34335 H 59.87610001276404 33.804433943231615 31.52317255754315 H 0.0 **** 0.06
34336 C 41.011616943875566 5.74835761199734 27.26871826314055 C 0.0 **** -0.24
34337 H 41.78270076519968 5.034103780339983 26.98175830623102 H 0.0 **** 0.06
34338 H 40.67940250243821 6.297661934944907 26.38767444993804 H 0.0 **** 0.06
34339 H 41.418629468241434 6.446948319778272 28.000782991069435 H 0.0 **** 0.06
34340 H 40.16729261376565 5.21514266549649 27.706499198050047 H 0.0 **** 0.06
34341 C 100.65971943361501 45.64519086745423 18.329778976712305 C 0.0 **** -0.24
34342 H 101.38745129179006 44.86388778382934 18.54593084561128 H 0.0 **** 0.06
34343 H 100.50249760900678 46.25245069241839 19.221113739394355 H 0.0 **** 0.06
34344 H 99.71589385305816 45.18988866243046 18.02933421912236 H 0.0 **** 0.06
34345 H 101.03202444116675 46.27452966225411 17.521747726826135 H 0.0 **** 0.06
34346 C 97.50107285881556 53.348346489221285 1.2962861977055837 C 0.0 **** -0.24
34347 H 96.50472311124264 53.48747579850101 0.8776717691792157 H 0.0 **** 0.06
34348 H 97.42013266380262 53.11643321042635 2.3588330628544014 H 0.0 **** 0.06
34349 H 98.08045535337418 54.26173818993749 1.1670564861020694 H 0.0 **** 0.06
34350 H 97.9989572676204 52.525540439488054 0.7819922667151502 H 0.0 **** 0.06
34351 C 40.522456179680056 0.9488116313839186 93.81553451740405 C 0.0 **** -0.24
34352 H 41.35101150753346 1.416094144180704 93.2836285395149 H 0.0 **** 0.06
34353 H 40.64678431717073 -0.13399719425633805 93.80137732212515 H 0.0 **** 0.06
34354 H 39.58341633543885 1.212915862838571 93.3275242015514 H 0.0 **** 0.06
34355 H 40.507542420697234 1.3009552955960118 94.84689976547054 H 0.0 **** 0.06
34356 C 50.33533930742868 103.22223360162712 1.3486856804357839 C 0.0 **** -0.24
34357 H 50.494688982228524 102.44038394767972 0.6057114599578437 H 0.0 **** 0.06
34358 H 50.02210461558775 104.13947584145157 0.8492043437654635 H 0.0 **** 0.06
34359 H 51.26322246931505 103.40232263328247 1.8916964074869016 H 0.0 **** 0.06
34360 H 49.56032987751166 102.90604537199692 2.0474390620969967 H 0.0 **** 0.06
34361 C 76.32810375338767 94.09633445439816 44.360452655486824 C 0.0 **** -0.24
34362 H 76.57334577531397 95.15042974607249 44.49120563895099 H 0.0 **** 0.06
34363 H 76.25905634429371 93.61622382962207 45.33696642588782 H 0.0 **** 0.06
34364 H 77.10655126267096 93.61248951396878 43.770898255655766 H 0.0 **** 0.06
34365 H 75.37244042862675 94.00810721228773 43.84328783818148 H 0.0 **** 0.06
34366 C 21.658102372937293 98.06941961966146 85.68709542869064 C 0.0 **** -0.24
34367 H 21.44337367466906 97.0748491329945 86.07971364297785 H 0.0 **** 0.06
34368 H 21.45055848160854 98.81518133065836 86.45487527835644 H 0.0 **** 0.06
34369 H 21.0301267449658 98.25878085430588 84.8162930303796 H 0.0 **** 0.06
34370 H 22.706767534433624 98.1272955461334 85.3976553551365 H 0.0 **** 0.06
34371 C 73.35844419546814 81.64453912210175 98.72382731090939 C 0.0 **** -0.24
34372 H 74.31062631692248 81.32406575661088 99.14671015160644 H 0.0 **** 0.06
34373 H 72.86719680441206 80.79476964540964 98.24861498164186 H 0.0 **** 0.06
34374 H 73.53449460480496 82.4233736356739 97.98199787866933 H 0.0 **** 0.06
34375 H 72.72231508203015 82.0363552332567 99.5176684551925 H 0.0 **** 0.06
34376 C 22.80479798293416 21.99878314727519 1.7174330348724283 C 0.0 **** -0.24
34377 H 23.42276795371177 21.150903420913153 2.014143304182454 H 0.0 **** 0.06
34378 H 23.21365268025953 22.913399905164027 2.1485118628992694 H 0.0 **** 0.06
34379 H 21.786259995494092 21.850315984532727 2.076311483179339 H 0.0 **** 0.06
34380 H 22.79864478202056 22.0810510381817 0.6303663321100288 H 0.0 **** 0.06
34381 C 0.6900897191593165 102.26009784623272 71.7609428585798 C 0.0 **** -0.24
34382 H 0.8694393118130828 101.3066990737218 72.25854953005427 H 0.0 **** 0.06
34383 H 1.5943834260230618 102.86728369767752 71.80278900952615 H 0.0 **** 0.06
34384 H -0.1234487835942657 102.78367107090082 72.26428281014614 H 0.0 **** 0.06
34385 H 0.41907116682646084 102.08187099522661 70.72121842149835 H 0.0 **** 0.06
34386 C 18.819809123473902 51.06209024270662 83.66741529953109 C 0.0 **** -0.24
34387 H 17.880225847320133 51.248084337887164 83.1456362232722 H 0.0 **** 0.06
34388 H 19.345434544512585 50.23777028531655 83.18478975298477 H 0.0 **** 0.06
34389 H 18.61333018806849 50.804235265715796 84.70543555434415 H 0.0 **** 0.06
34390 H 19.438440662513898 51.95814560706743 83.63102012292629 H 0.0 **** 0.06
34391 C 69.08321822315466 33.31838004101773 87.46631151741933 C 0.0 **** -0.24
34392 H 69.50872637536325 32.720242882829005 88.27175586009078 H 0.0 **** 0.06
34393 H 68.7153315584738 34.26176618476463 87.86975897167201 H 0.0 **** 0.06
34394 H 68.2586940137397 32.77392472060035 87.00569767475234 H 0.0 **** 0.06
34395 H 69.85072688903827 33.51700581312325 86.71748966215215 H 0.0 **** 0.06
34396 C 95.03094624640504 32.78526400349352 52.470194464730376 C 0.0 **** -0.24
34397 H 94.59460928819526 31.78695716107893 52.461868616201485 H 0.0 **** 0.06
34398 H 94.28405739691479 33.51083821943104 52.146517133371674 H 0.0 **** 0.06
34399 H 95.88442594099544 32.81537917826438 51.7939561356727 H 0.0 **** 0.06
34400 H 95.35944145778058 33.02880750360572 53.48100075926502 H 0.0 **** 0.06
34401 C 17.05575206762488 108.95090948043442 89.63042265434831 C 0.0 **** -0.24
34402 H 16.167966934262893 108.69078103851884 90.20720652561465 H 0.0 **** 0.06
34403 H 17.797598101205097 108.15844950579532 89.73038027115089 H 0.0 **** 0.06
34404 H 17.469334994717997 109.88749299935738 90.00391471539419 H 0.0 **** 0.06
34405 H 16.786263156530396 109.06565115101714 88.58017602897488 H 0.0 **** 0.06
34406 C 19.208053166349856 72.94863172165253 69.0557043574673 C 0.0 **** -0.24
34407 H 19.559644745955467 72.52993160386089 68.11256945085904 H 0.0 **** 0.06
34408 H 18.834718510980878 73.95934198799702 68.88711634767193 H 0.0 **** 0.06
34409 H 20.031128814016313 72.97865312097576 69.76848901892936 H 0.0 **** 0.06
34410 H 18.405528465693607 72.32565715412028 69.45205611112725 H 0.0 **** 0.06
34411 C 28.85639050092749 100.5588151751808 3.512969802923749 C 0.0 **** -0.24
34412 H 29.665150334570228 100.95125097130028 2.8952946326518827 H 0.0 **** 0.06
34413 H 28.540866380579246 99.59095872374044 3.125330529785174 H 0.0 **** 0.06
34414 H 28.015071648410924 101.25142726756354 3.4916405896748017 H 0.0 **** 0.06
34415 H 29.20561351614208 100.4440647222059 4.538751673194028 H 0.0 **** 0.06
34416 C 21.286319285802705 50.22988213896332 19.557191793773455 C 0.0 **** -0.24
34417 H 22.187201673530353 50.73069647069451 19.202428774571985 H 0.0 **** 0.06
34418 H 21.031483867950982 50.60293222377383 20.550180468436878 H 0.0 **** 0.06
34419 H 21.463887136135412 49.15601930756514 19.606922023372675 H 0.0 **** 0.06
34420 H 20.464125870316792 50.431877702631475 18.870647079009984 H 0.0 **** 0.06
34421 C 73.34538388186832 10.40531231078929 62.12733158927949 C 0.0 **** -0.24
34422 H 73.245610815692 11.372853841191997 61.634598777393364 H 0.0 **** 0.06
34423 H 73.87559376045132 10.531811242879847 63.070806192466875 H 0.0 **** 0.06
34424 H 73.90297441141416 9.726163608368799 61.483578042721916 H 0.0 **** 0.06
34425 H 72.35432063062814 9.992723600319412 62.31876852403292 H 0.0 **** 0.06
34426 C 37.47820659026587 28.80769707295525 79.49556544535142 C 0.0 **** -0.24
34427 H 38.2601180238334 28.142851498951416 79.12781721226573 H 0.0 **** 0.06
34428 H 37.822009955166834 29.30457304516657 80.40323962713836 H 0.0 **** 0.06
34429 H 36.58193647098568 28.22794741603156 79.71650679045482 H 0.0 **** 0.06
34430 H 37.250457036080434 29.555097536828228 78.7361212358043 H 0.0 **** 0.06
34431 C 24.68892856980864 28.100420382876287 85.18869317352107 C 0.0 **** -0.24
34432 H 23.87422919826915 27.763057632378157 85.83036616726292 H 0.0 **** 0.06
34433 H 24.47271042288324 27.831329630618015 84.1550333072887 H 0.0 **** 0.06
34434 H 25.61809205240513 27.62505588415877 85.50193532636519 H 0.0 **** 0.06
34435 H 24.788583402107975 29.183091405194205 85.26940414486359 H 0.0 **** 0.06
34436 C 86.67371769301678 75.67793911287868 18.407441538282164 C 0.0 **** -0.24
34437 H 86.43105699874484 76.68763479185498 18.73743130333944 H 0.0 **** 0.06
34438 H 86.52712242741035 75.60191256444293 17.329896333285497 H 0.0 **** 0.06
34439 H 86.02434500796069 74.96491290837773 18.91405928773389 H 0.0 **** 0.06
34440 H 87.71371984138679 75.45734912543242 18.648712072443402 H 0.0 **** 0.06
34441 C 11.652211751603176 34.6643059164976 48.61340454352597 C 0.0 **** -0.24
34442 H 12.092456891110231 35.659000400399435 48.68238974980349 H 0.0 **** 0.06
34443 H 11.338361580641475 34.33671641590939 49.60438337296836 H 0.0 **** 0.06
34444 H 12.390987306641193 33.96742521754683 48.217152286559724 H 0.0 **** 0.06
34445 H 10.788740811382638 34.69441306775721 47.94965134665149 H 0.0 **** 0.06
34446 C 73.42929462157076 90.57492828601835 108.89311474882417 C 0.0 **** -0.24
34447 H 73.96733744210718 91.12668483261906 109.66360905401801 H 0.0 **** 0.06
34448 H 74.04297646943684 90.51771674785867 107.9936274864831 H 0.0 **** 0.06
34449 H 72.49535120610437 91.0876344008551 108.66504688215842 H 0.0 **** 0.06
34450 H 73.2138900477363 89.56827010577169 109.25018616926502 H 0.0 **** 0.06
34451 C 64.70154191298198 3.6469238248854765 41.67574991987266 C 0.0 **** -0.24
34452 H 65.31064709019091 2.937630267599019 41.11449556926175 H 0.0 **** 0.06
34453 H 65.2285283917551 3.938142793348419 42.585122063288736 H 0.0 **** 0.06
34454 H 63.752503679948006 3.181530891813452 41.9392734375466 H 0.0 **** 0.06
34455 H 64.51614465691688 4.530135452400515 41.06367068478704 H 0.0 **** 0.06
34456 C 67.36763938508943 48.10520004295759 48.58854381448867 C 0.0 **** -0.24
34457 H 66.34378171158153 48.4030736271101 48.36592400448387 H 0.0 **** 0.06
34458 H 67.36333483300058 47.14095609307677 49.0981574015031 H 0.0 **** 0.06
34459 H 67.83223602973368 48.85371663684964 49.2304906469825 H 0.0 **** 0.06
34460 H 67.93259150249582 48.02277529983897 47.65960992622979 H 0.0 **** 0.06
34461 C 73.60776034630416 35.46199544113122 100.59032457317699 C 0.0 **** -0.24
34462 H 74.33770348889459 36.05866416150235 101.13688681410707 H 0.0 **** 0.06
34463 H 72.91748345713722 34.99669691095329 101.2947591069996 H 0.0 **** 0.06
34464 H 74.12325571418467 34.68720222344554 100.02180727722214 H 0.0 **** 0.06
34465 H 73.05148175014568 36.10457043553231 99.90766259466832 H 0.0 **** 0.06
34466 C 27.517866272804923 87.91679284732672 2.690428206251452 C 0.0 **** -0.24
34467 H 27.264990754278074 86.97290275687249 3.174240540259637 H 0.0 **** 0.06
34468 H 26.678958926346837 88.6079895624182 2.781420032458759 H 0.0 **** 0.06
34469 H 27.730128318707813 87.7394512058168 1.635734569169359 H 0.0 **** 0.06
34470 H 28.39738709188694 88.34682786419927 3.170317683117876 H 0.0 **** 0.06
34471 C 77.14922870725096 74.58919543443949 49.22995269113005 C 0.0 **** -0.24
34472 H 77.1737807460832 74.59229519219068 50.32042760314937 H 0.0 **** 0.06
34473 H 77.41609503618292 73.59669784559739 48.864663981549825 H 0.0 **** 0.06
34474 H 77.86076199418454 75.32016964901929 48.848286800809774 H 0.0 **** 0.06
34475 H 76.14588726834609 74.84506807753019 48.88914186171661 H 0.0 **** 0.06
34476 C 42.32354213513577 95.30698524272475 72.97996518156212 C 0.0 **** -0.24
34477 H 42.00899704914008 94.94264699837856 72.0014781115291 H 0.0 **** 0.06
34478 H 41.939899242382864 94.64165106243252 73.7544375825028 H 0.0 **** 0.06
34479 H 41.930724805014165 96.31182972734416 73.13596833127845 H 0.0 **** 0.06
34480 H 43.41177513050826 95.33068964591035 73.02596359712635 H 0.0 **** 0.06
34481 C 28.857892098419597 45.09005199114267 17.77067744268919 C 0.0 **** -0.24
34482 H 29.661725724247546 44.355515922952804 17.710268906837143 H 0.0 **** 0.06
34483 H 28.369849297707567 45.0141548379284 18.742172009100557 H 0.0 **** 0.06
34484 H 28.130354776551975 44.898059513171404 16.98110460180419 H 0.0 **** 0.06
34485 H 29.27076214394031 46.091014734626924 17.64755251621756 H 0.0 **** 0.06
34486 C 49.55868370302409 62.9788413065923 10.52215286587944 C 0.0 **** -0.24
34487 H 50.11840276351751 62.67220146739908 9.639149812977216 H 0.0 **** 0.06
34488 H 48.711129463348854 63.594153565160866 10.219374853431805 H 0.0 **** 0.06
34489 H 50.20771747683086 63.553282626890734 11.182716388207826 H 0.0 **** 0.06
34490 H 49.196492498563146 62.09487995393721 11.048509016202644 H 0.0 **** 0.06
34491 C 91.1334598303678 71.05189578222942 2.5784453280059125 C 0.0 **** -0.24
34492 H 91.47346925300084 70.08805288272063 2.198540916655503 H 0.0 **** 0.06
34493 H 91.76674340781017 71.84357086606806 2.1782961979239275 H 0.0 **** 0.06
34494 H 91.19317632568283 71.05427930931481 3.6666622671906737 H 0.0 **** 0.06
34495 H 90.10125219918734 71.22056920277812 2.270632765097318 H 0.0 **** 0.06
34496 C 19.021546059712563 31.185677962577557 66.49143076598463 C 0.0 **** -0.24
34497 H 19.329361696318273 30.213415970992628 66.87616315992706 H 0.0 **** 0.06
34498 H 18.04761770946503 31.447607112002913 66.90450888990718 H 0.0 **** 0.06
34499 H 18.956958238381944 31.142000152196346 65.40448113623077 H 0.0 **** 0.06
34500 H 19.75484635007267 31.93938435469377 66.78203587358864 H 0.0 **** 0.06
34501 C 97.87759846982075 10.056291168089913 42.57521121075155 C 0.0 **** -0.24
34502 H 97.89702688298878 9.737164334189856 41.532831962473495 H 0.0 **** 0.06
34503 H 97.05827342890508 10.761383338977708 42.72390718553177 H 0.0 **** 0.06
34504 H 98.82235676093806 10.539810712087245 42.82404548081246 H 0.0 **** 0.06
34505 H 97.73183624805083 9.188160196874577 43.218228215230624 H 0.0 **** 0.06
34506 C 63.35990029254813 76.64713103204141 45.08754486300194 C 0.0 **** -0.24
34507 H 64.32571044206236 77.0664387311229 44.80490075567184 H 0.0 **** 0.06
34508 H 62.747941940701594 76.51170661173222 44.19561937380939 H 0.0 **** 0.06
34509 H 62.85687082273614 77.32632452309124 45.77502312548097 H 0.0 **** 0.06
34510 H 63.512063018637946 75.68390368941715 45.57437691594458 H 0.0 **** 0.06
34511 C 8.606200667403954 54.821683320477064 89.16583914497413 C 0.0 **** -0.24
34512 H 7.663966499733675 55.124720355594945 88.71041611124852 H 0.0 **** 0.06
34513 H 9.31468018682196 55.649077134478034 89.1222028462332 H 0.0 **** 0.06
34514 H 9.012167331464582 53.96695576906552 88.62501409762791 H 0.0 **** 0.06
34515 H 8.434178284054326 54.54479860734648 90.2064774453542 H 0.0 **** 0.06
34516 C 60.561005309524376 78.19854981020868 28.28237815197933 C 0.0 **** -0.24
34517 H 59.684220539399064 78.37814121020281 28.90371880576275 H 0.0 **** 0.06
34518 H 60.28603059437057 78.29323854603462 27.230952495886143 H 0.0 **** 0.06
34519 H 60.93947503656199 77.19407099663755 28.470263258278436 H 0.0 **** 0.06
34520 H 61.33376142432684 78.92954811075441 28.52354077890314 H 0.0 **** 0.06
34521 C 16.667679551732377 20.76982577581262 79.72758792040625 C 0.0 **** -0.24
34522 H 16.07279403978177 20.84360295991243 78.81723358453567 H 0.0 **** 0.06
34523 H 16.167567579292154 21.30793482818453 80.53378740058076 H 0.0 **** 0.06
34524 H 17.651119844644086 21.207042380633 79.5549736266949 H 0.0 **** 0.06
34525 H 16.779102954630048 19.721736675397466 80.005334069887 H 0.0 **** 0.06
34526 C 0.3528190421635946 69.38550363627678 46.62741196735886 C 0.0 **** -0.24
34527 H 1.0846003112643787 69.31503779519409 45.82195827013403 H 0.0 **** 0.06
34528 H 0.18990641965457122 68.39575280614662 47.056001188987494 H 0.0 **** 0.06
34529 H -0.587062287431527 69.76930653876707 46.231335895544255 H 0.0 **** 0.06
34530 H 0.7254339937378029 70.05948709956277 47.39876289345539 H 0.0 **** 0.06
34531 C 103.70432957647552 75.50843338214577 36.24078673420449 C 0.0 **** -0.24
34532 H 103.27903949365503 76.2635947354372 36.901507945445616 H 0.0 **** 0.06
34533 H 103.05824129501588 75.3804209654823 35.37198834383955 H 0.0 **** 0.06
34534 H 103.78611226659501 74.5620407622749 36.77606376710571 H 0.0 **** 0.06
34535 H 104.69475466433573 75.82760603239423 35.91473017667974 H 0.0 **** 0.06
34536 C 51.31123444662118 57.77393262616704 32.367131792824466 C 0.0 **** -0.24
34537 H 50.695524975548516 57.282909665668114 33.12107952934139 H 0.0 **** 0.06
34538 H 52.000609015979215 58.46310092890815 32.85380782931824 H 0.0 **** 0.06
34539 H 50.67003672333851 58.326468129890145 31.67984881320848 H 0.0 **** 0.06
34540 H 51.875451627284626 57.02329369064364 31.813872346802725 H 0.0 **** 0.06
34541 C 71.46209239723379 75.55560847908032 45.357787733787745 C 0.0 **** -0.24
34542 H 72.1990669040627 75.76705338636296 46.132379547222115 H 0.0 **** 0.06
34543 H 70.8484222219027 76.44162263036603 45.18933062805013 H 0.0 **** 0.06
34544 H 70.82685523849608 74.72935604197946 45.676975022920345 H 0.0 **** 0.06
34545 H 71.9726536046445 75.28504398394819 44.4333062614694 H 0.0 **** 0.06
34546 C 63.973451637416076 23.852219664548237 106.39299791226378 C 0.0 **** -0.24
34547 H 64.32722092221536 23.976587371472284 107.41625976010431 H 0.0 **** 0.06
34548 H 62.98894314789874 23.38295609665134 106.4040737796607 H 0.0 **** 0.06
34549 H 64.67094969472683 23.221502721311612 105.84167453262359 H 0.0 **** 0.06
34550 H 63.90535006715754 24.82721196141724 105.91088481389897 H 0.0 **** 0.06
34551 C 27.594409252089036 105.92898973547133 94.44289108180658 C 0.0 **** -0.24
34552 H 28.198448609973383 106.83103004526438 94.54229235312681 H 0.0 **** 0.06
34553 H 28.167838552497585 105.0683832724032 94.78763769456958 H 0.0 **** 0.06
34554 H 27.320487926098565 105.78940048863385 93.39768117124191 H 0.0 **** 0.06
34555 H 26.691873529598553 106.02922250667524 95.04586664450528 H 0.0 **** 0.06
34556 C 97.4385654311838 109.31286634780301 11.001593982271345 C 0.0 **** -0.24
34557 H 96.56223322839776 108.7702673676472 10.64751339440167 H 0.0 **** 0.06
34558 H 97.1471636071351 109.98584720820699 11.807454738585236 H 0.0 **** 0.06
34559 H 97.863301691766 109.89175734395499 10.180822856876745 H 0.0 **** 0.06
34560 H 98.18067644122895 108.60477425557934 11.369236009889619 H 0.0 **** 0.06
34561 C 67.25074578535722 7.461240216309816 10.389954205038492 C 0.0 **** -0.24
34562 H 68.17737034364774 8.018721989757047 10.529341795976109 H 0.0 **** 0.06
34563 H 66.42523264622494 8.011149663008585 10.842287643421301 H 0.0 **** 0.06
34564 H 67.34078334259868 6.4835683059549964 10.863006758944962 H 0.0 **** 0.06
34565 H 67.06202847213856 7.333466937665733 9.324040217514138 H 0.0 **** 0.06
34566 C 88.33578560106645 79.22278157087709 8.302003800291516 C 0.0 **** -0.24
34567 H 89.11009724703024 79.96858387861988 8.481015649802856 H 0.0 **** 0.06
34568 H 87.83904328211864 78.98336138747868 9.24225956885823 H 0.0 **** 0.06
34569 H 88.7881060019667 78.32035150995952 7.890069180204051 H 0.0 **** 0.06
34570 H 87.6055647661956 79.61800420434048 7.595770503193876 H 0.0 **** 0.06
34571 C 11.785285865321363 44.0086749835414 47.15627355728708 C 0.0 **** -0.24
34572 H 12.445517842737452 43.65780970367868 46.36316060715792 H 0.0 **** 0.06
34573 H 11.036057305081924 43.245540950519484 47.369268684275056 H 0.0 **** 0.06
34574 H 11.2890949954249 44.92479446641843 46.83711601097188 H 0.0 **** 0.06
34575 H 12.369696879382268 44.20538986462381 48.05534858677233 H 0.0 **** 0.06
34576 C 105.00781557580974 95.7688846778693 57.1077650111493 C 0.0 **** -0.24
34577 H 105.31085375737396 95.30274193810097 58.04578831305341 H 0.0 **** 0.06
34578 H 104.23521278046962 96.51228655623416 57.304674743568626 H 0.0 **** 0.06
34579 H 104.61645908507293 95.00743509521529 56.43375206485848 H 0.0 **** 0.06
34580 H 105.86991832961262 96.25266247879352 56.64750335283378 H 0.0 **** 0.06
34581 C 86.55812805302455 29.579028630569695 18.308170533828104 C 0.0 **** -0.24
34582 H 85.67152464894397 28.994158657122853 18.064502004571636 H 0.0 **** 0.06
34583 H 87.3698884387552 29.305393630198495 17.634739179995222 H 0.0 **** 0.06
34584 H 86.85494105507291 29.376232840865214 19.33722970462651 H 0.0 **** 0.06
34585 H 86.33448517539298 30.639803967397285 18.197173301659348 H 0.0 **** 0.06
34586 C 2.5748480726478364 66.61069803028683 83.20232640543477 C 0.0 **** -0.24
34587 H 2.241372990730426 67.11613948203821 84.1090734538416 H 0.0 **** 0.06
34588 H 2.3125063837752506 67.21559925003707 82.33327904851132 H 0.0 **** 0.06
34589 H 2.088834422224938 65.63876768103533 83.12928602946278 H 0.0 **** 0.06
34590 H 3.655850760432326 66.4755519920233 83.23929403182177 H 0.0 **** 0.06
34591 C 104.23478293668325 36.977974032349266 42.30282790982845 C 0.0 **** -0.24
34592 H 103.40000082721832 37.52421023324077 42.74168402790793 H 0.0 **** 0.06
34593 H 104.746124058681 36.40944961839353 43.08004483153895 H 0.0 **** 0.06
34594 H 104.93156660276566 37.68259296939698 41.84856636427135 H 0.0 **** 0.06
34595 H 103.85976565729209 36.295320823732496 41.53957005338837 H 0.0 **** 0.06
34596 C 107.25274757979847 51.29166304426468 90.79899972793254 C 0.0 **** -0.24
34597 H 106.84787151665282 50.7745599705018 89.92873098959325 H 0.0 **** 0.06
34598 H 108.07483745894359 51.93737849600714 90.4879230155579 H 0.0 **** 0.06
34599 H 107.61855753172053 50.55829512439715 91.51796805771204 H 0.0 **** 0.06
34600 H 106.47028973779108 51.89440424728423 91.26058791635086 H 0.0 **** 0.06
34601 C 15.178908693489234 53.13180769840557 30.145984631298617 C 0.0 **** -0.24
34602 H 15.329331620136912 54.204729011163494 30.267003966396146 H 0.0 **** 0.06
34603 H 15.995723486072421 52.59454253592776 30.627312559138936 H 0.0 **** 0.06
34604 H 15.15668800864438 52.88680579094043 29.08406929857906 H 0.0 **** 0.06
34605 H 14.233108525619997 52.843905746059846 30.604651565663325 H 0.0 **** 0.06
34606 C 57.2983503175417 45.365781440597516 58.270112982238516 C 0.0 **** -0.24
34607 H 56.30786943672817 45.793387851693524 58.11021516216937 H 0.0 **** 0.06
34608 H 57.60553907377207 44.819487059445464 57.37734287374013 H 0.0 **** 0.06
34609 H 57.26761727578523 44.68546662841436 59.1208885545839 H 0.0 **** 0.06
34610 H 58.010868219067824 46.16553800852006 58.46952332197361 H 0.0 **** 0.06
34611 C 43.422121111939816 25.070265333688553 25.340963243083237 C 0.0 **** -0.24
34612 H 42.63909835176105 24.32010662147144 25.45513927521847 H 0.0 **** 0.06
34613 H 43.955763579869426 24.89759968967641 24.405495320768793 H 0.0 **** 0.06
34614 H 44.118609336620295 24.998653099941322 26.17586662900709 H 0.0 **** 0.06
34615 H 42.97371001900012 26.062999615842045 25.326166750273387 H 0.0 **** 0.06
34616 C 35.86134485369115 84.87968189041479 58.54868462561191 C 0.0 **** -0.24
34617 H 35.32556347513835 83.9310936037823 58.57952983317665 H 0.0 **** 0.06
34618 H 36.91955505405829 84.70603552218952 58.74206233122234 H 0.0 **** 0.06
34619 H 35.456803865321035 85.54963622856852 59.3074320415389 H 0.0 **** 0.06
34620 H 35.74078352140219 85.33216867305143 57.56436885172667 H 0.0 **** 0.06
34621 C 104.57775825412475 21.18203962831072 13.50990797216862 C 0.0 **** -0.24
34622 H 104.37908317806964 22.208117586432707 13.201847820469908 H 0.0 **** 0.06
34623 H 104.79416409958544 20.573134740135743 12.631671529150054 H 0.0 **** 0.06
34624 H 103.7035660387044 20.781405028526308 14.023831884551583 H 0.0 **** 0.06
34625 H 105.43444782900403 21.164932330490785 14.183900698007463 H 0.0 **** 0.06
34626 C 28.277926581121335 23.999354296559527 17.796384372592588 C 0.0 **** -0.24
34627 H 27.84962795951853 24.63083963814169 18.57549378277853 H 0.0 **** 0.06
34628 H 29.18282236812024 23.522254717643737 18.172941775122215 H 0.0 **** 0.06
34629 H 28.522904853674447 24.60986645926536 16.927145384127446 H 0.0 **** 0.06
34630 H 27.554520676958447 23.23469327868666 17.511218893782015 H 0.0 **** 0.06
34631 C 56.510367607790556 51.01971705982741 37.38429556176486 C 0.0 **** -0.24
34632 H 56.014234964380194 50.05776869611418 37.25809106421939 H 0.0 **** 0.06
34633 H 56.26437247945313 51.42965862555412 38.36332728834052 H 0.0 **** 0.06
34634 H 56.17383386185685 51.70592752832447 36.607175177401544 H 0.0 **** 0.06
34635 H 57.588963658979424 50.884030414910264 37.30691636881505 H 0.0 **** 0.06
34636 C 56.35849946927834 20.64645988393346 4.195452641685506 C 0.0 **** -0.24
34637 H 56.88626231408989 21.173356694951792 4.99075825676033 H 0.0 **** 0.06
34638 H 55.90008270899338 19.743355649666057 4.599666360243759 H 0.0 **** 0.06
34639 H 57.06306103753275 20.37653891489282 3.409228439454978 H 0.0 **** 0.06
34640 H 55.58440052292298 21.293222295411226 3.782906827294653 H 0.0 **** 0.06
34641 C 89.61220732420406 23.417332867958464 97.99167040532014 C 0.0 **** -0.24
34642 H 88.8327528618438 23.79443279940523 97.3291877469685 H 0.0 **** 0.06
34643 H 89.48181074745776 22.344091550089445 98.13066203460382 H 0.0 **** 0.06
34644 H 89.54239269814603 23.920260948481427 98.95682178611668 H 0.0 **** 0.06
34645 H 90.58996819183577 23.611559143225776 97.55059817530473 H 0.0 **** 0.06
34646 C 58.17068434891996 88.47577620916002 107.83307707369721 C 0.0 **** -0.24
34647 H 58.14489340730859 88.98291104341138 108.79776871836815 H 0.0 **** 0.06
34648 H 57.16991697780236 88.12387762405243 107.58167313320976 H 0.0 **** 0.06
34649 H 58.85118493977586 87.62570451733211 107.88757437811525 H 0.0 **** 0.06
34650 H 58.515588239989654 89.16951453604054 107.06686217946189 H 0.0 **** 0.06
34651 C 78.42333304052276 33.022458781924286 28.826533163273268 C 0.0 **** -0.24
34652 H 78.31712847550013 33.40585417370039 27.812205120073003 H 0.0 **** 0.06
34653 H 79.15889016078397 33.61949761286641 29.366062814689883 H 0.0 **** 0.06
34654 H 78.7551428056773 31.98431058300156 28.789404792576335 H 0.0 **** 0.06
34655 H 77.46269184859923 33.07894701470468 29.337984449919958 H 0.0 **** 0.06
34656 C 109.49486017253854 50.44446997562079 86.8215743330727 C 0.0 **** -0.24
34657 H 108.80916082976287 49.69135246765762 86.43344511559886 H 0.0 **** 0.06
34658 H 110.35177228258176 49.9521279464509 87.282348540643 H 0.0 **** 0.06
34659 H 108.98159971892557 51.05245350282922 87.56713763854606 H 0.0 **** 0.06
34660 H 109.8360770957681 51.08103568068725 86.00523189533322 H 0.0 **** 0.06
34661 C 19.549276119346132 53.53567710432861 29.80080452773791 C 0.0 **** -0.24
34662 H 18.894436491653295 52.89151720375918 29.213751751600398 H 0.0 **** 0.06
34663 H 19.42746717979105 53.30830579563644 30.85991440910533 H 0.0 **** 0.06
34664 H 19.289532555264344 54.57880344659645 29.61966206266561 H 0.0 **** 0.06
34665 H 20.58553832086656 53.361882204680796 29.508820101505336 H 0.0 **** 0.06
34666 C 58.81041975631089 99.92221660461502 3.4936383451594963 C 0.0 **** -0.24
34667 H 57.93664808547883 99.64446181460556 2.9047621507041157 H 0.0 **** 0.06
34668 H 58.576712589068286 99.83089058178012 4.554913256954492 H 0.0 **** 0.06
34669 H 59.087283140390916 100.95283001481499 3.269824653431172 H 0.0 **** 0.06
34670 H 59.64105022659551 99.26126073584095 3.246686508849521 H 0.0 **** 0.06
34671 C 101.8903314808286 66.38624970489263 84.75834480037568 C 0.0 **** -0.24
34672 H 101.8795162008946 65.29637012929669 84.7289945176662 H 0.0 **** 0.06
34673 H 102.10915086146903 66.77366770652446 83.76285282279872 H 0.0 **** 0.06
34674 H 102.65702767298059 66.72273967855847 85.45591937553814 H 0.0 **** 0.06
34675 H 100.91649302197555 66.75027537344403 85.08439968334616 H 0.0 **** 0.06
34676 C 77.8957256974866 85.69654213857073 9.96121727892978 C 0.0 **** -0.24
34677 H 78.18902313271104 84.90309949765275 10.64828221772791 H 0.0 **** 0.06
34678 H 78.5933857684866 85.72888718442897 9.123742420758447 H 0.0 **** 0.06
34679 H 77.909935010557 86.652995018131 10.483450779932468 H 0.0 **** 0.06
34680 H 76.88998907317458 85.50053454953259 9.588893826737035 H 0.0 **** 0.06
34681 C 23.88211569999129 54.837001408637235 34.682243825922285 C 0.0 **** -0.24
34682 H 24.397628403262786 54.04674111256321 34.134970344647996 H 0.0 **** 0.06
34683 H 22.967772402492074 55.10705030841132 34.153469950201895 H 0.0 **** 0.06
34684 H 24.531041924766896 55.70986354275786 34.75609726226455 H 0.0 **** 0.06
34685 H 23.633999522217607 54.4827279957494 35.68258054766119 H 0.0 **** 0.06
34686 C 46.92300515386444 27.247526208270898 31.149942104219008 C 0.0 **** -0.24
34687 H 45.837482989969374 27.336748309441077 31.204117455930827 H 0.0 **** 0.06
34688 H 47.37803154318624 27.875984302015524 31.915497635735903 H 0.0 **** 0.06
34689 H 47.264498341855045 27.569779593790884 30.165688540969313 H 0.0 **** 0.06
34690 H 47.21006178112944 26.208650166029088 31.312441099179807 H 0.0 **** 0.06
34691 C 101.18823313043481 18.960939116681935 1.6654074724982593 C 0.0 **** -0.24
34692 H 100.34761327931837 19.606300351694713 1.9205290344982444 H 0.0 **** 0.06
34693 H 101.58967265723103 18.511124599711852 2.5732698244435284 H 0.0 **** 0.06
34694 H 101.96466874014767 19.55185755871886 1.1797007765390504 H 0.0 **** 0.06
34695 H 100.85238645087342 18.17646774748263 0.9879279556806893 H 0.0 **** 0.06
34696 C 43.43511838951906 31.270448307299716 54.433958604217906 C 0.0 **** -0.24
34697 H 43.77265701118682 31.814771365880063 53.551031634860436 H 0.0 **** 0.06
34698 H 43.4210199808976 30.201727376785925 54.21851092031796 H 0.0 **** 0.06
34699 H 42.43142865865673 31.60041145981782 54.70141344251414 H 0.0 **** 0.06
34700 H 44.11550498047353 31.46548792133885 55.26194315779955 H 0.0 **** 0.06
34701 C 19.12556958766362 36.71425481690385 70.97717220638424 C 0.0 **** -0.24
34702 H 18.852923095932056 37.53772271438716 70.31693483399613 H 0.0 **** 0.06
34703 H 18.221077487787596 36.27367263779778 71.39938230318012 H 0.0 **** 0.06
34704 H 19.758839496040252 37.087530763607226 71.78130658530182 H 0.0 **** 0.06
34705 H 19.66654972247113 35.95751539689359 70.40875790109641 H 0.0 **** 0.06
34706 C 15.40726462029744 46.118493809857 56.93495230814199 C 0.0 **** -0.24
34707 H 14.323069025281654 46.21093763652675 57.00445015930734 H 0.0 **** 0.06
34708 H 15.660136777354921 45.35135482567648 56.20214579798889 H 0.0 **** 0.06
34709 H 15.810676188336686 45.83971965006566 57.907506085299715 H 0.0 **** 0.06
34710 H 15.83424266215502 47.07187429688662 56.624251091426736 H 0.0 **** 0.06
34711 C 95.04959982810828 77.13117939952019 7.918054487980669 C 0.0 **** -0.24
34712 H 95.21871961773302 76.09860560144307 7.613286229516973 H 0.0 **** 0.06
34713 H 95.28557901545915 77.24101563156034 8.9767814196627 H 0.0 **** 0.06
34714 H 94.00571813083307 77.3931519804292 7.748711116550055 H 0.0 **** 0.06
34715 H 95.68959275845133 77.79167077861536 7.332760488555834 H 0.0 **** 0.06
34716 C 51.552338129753764 79.47232298459122 92.96045079014002 C 0.0 **** -0.24
34717 H 50.700596057245434 79.09604687494632 92.39470566583294 H 0.0 **** 0.06
34718 H 52.20869290450446 80.03608157419342 92.2973938288346 H 0.0 **** 0.06
34719 H 52.10143089601553 78.6341976487792 93.38999000441086 H 0.0 **** 0.06
34720 H 51.197972680309135 80.1220637212891 93.76103682240326 H 0.0 **** 0.06
34721 C 67.51290984176313 71.34073192267962 5.33827786070114 C 0.0 **** -0.24
34722 H 67.61934184205609 72.14933157964212 6.061414560558603 H 0.0 **** 0.06
34723 H 67.51949223899237 71.75352772722866 4.328839787389455 H 0.0 **** 0.06
34724 H 66.57040520904792 70.82050424137739 5.512352836775648 H 0.0 **** 0.06
34725 H 68.34055477087622 70.64072198122794 5.449999775560116 H 0.0 **** 0.06
34726 C 37.10323226198085 19.710098158111578 48.769347445160406 C 0.0 **** -0.24
34727 H 36.466366734040946 19.070198361666883 49.379342827649 H 0.0 **** 0.06
34728 H 38.14645198143836 19.43218472798702 48.9183359940663 H 0.0 **** 0.06
34729 H 36.95795111512513 20.750452438679815 49.060543649393026 H 0.0 **** 0.06
34730 H 36.84054403707245 19.586618076697448 47.71793862405059 H 0.0 **** 0.06
34731 C 69.36435125231085 32.26869374654629 74.1672479192909 C 0.0 **** -0.24
34732 H 69.98370354024128 32.87404439853553 73.50565047535196 H 0.0 **** 0.06
34733 H 69.3313657424604 32.72819583037926 75.15573702685884 H 0.0 **** 0.06
34734 H 69.78786339306903 31.266937387213176 74.24587726482989 H 0.0 **** 0.06
34735 H 68.3541122155685 32.20468615308431 73.76192703076075 H 0.0 **** 0.06
34736 C 29.706896006179704 90.36916740241685 75.39861811249361 C 0.0 **** -0.24
34737 H 29.742579192277276 89.46670394370085 76.00895349997194 H 0.0 **** 0.06
34738 H 28.741460181390494 90.85691250359866 75.52831461374075 H 0.0 **** 0.06
34739 H 29.842923849711013 90.10347371144132 74.35011862808554 H 0.0 **** 0.06
34740 H 30.50249316139329 91.04751487324805 75.70756756210841 H 0.0 **** 0.06
34741 C 65.17521741635142 62.72650442225688 102.10586209121584 C 0.0 **** -0.24
34742 H 64.79360578675897 61.96858432002534 101.4225601886098 H 0.0 **** 0.06
34743 H 64.3547334524269 63.12248797305864 102.70462078710386 H 0.0 **** 0.06
34744 H 65.6303870954938 63.53510460649795 101.53327654609069 H 0.0 **** 0.06
34745 H 65.92207238641157 62.281154641022226 102.76186438419285 H 0.0 **** 0.06
34746 C 23.016927100499373 97.5690669163235 17.7805710465624 C 0.0 **** -0.24
34747 H 22.89802738620091 96.84192756528269 16.977004553056005 H 0.0 **** 0.06
34748 H 22.05797083046059 97.7211196531569 18.277516494736858 H 0.0 **** 0.06
34749 H 23.366226947307382 98.51482495134218 17.3657840649944 H 0.0 **** 0.06
34750 H 23.74511777790991 97.19713301729072 18.501456879308364 H 0.0 **** 0.06
34751 C 86.22787830847597 76.74571798842037 45.50347769852101 C 0.0 **** -0.24
34752 H 86.60057497922406 77.38339024758854 46.30513919139702 H 0.0 **** 0.06
34753 H 87.03028944874026 76.0970189689695 45.153063977568536 H 0.0 **** 0.06
34754 H 85.87530730589475 77.36632183448113 44.680167078063334 H 0.0 **** 0.06
34755 H 85.40440409299828 76.13641701270359 45.87755183494966 H 0.0 **** 0.06
34756 C 84.47703988543087 88.55054590966604 92.52268592312319 C 0.0 **** -0.24
34757 H 83.5272535383538 88.68537556327306 92.00512556461894 H 0.0 **** 0.06
34758 H 85.00301100111118 87.69542181225167 92.09947796998972 H 0.0 **** 0.06
34759 H 84.29083376004392 88.37572084942205 93.58262996457 H 0.0 **** 0.06
34760 H 85.08469593666828 89.4475065235815 92.4036370399134 H 0.0 **** 0.06
34761 C 63.33317483750207 9.506491211841322 52.397279908444744 C 0.0 **** -0.24
34762 H 64.33065560382967 9.302859728249231 52.00598043912527 H 0.0 **** 0.06
34763 H 62.7953447309209 8.566347358124276 52.52479162530818 H 0.0 **** 0.06
34764 H 62.7922371791599 10.143487236045416 51.69811016200492 H 0.0 **** 0.06
34765 H 63.41698315484189 10.011335692404671 53.35928876629305 H 0.0 **** 0.06
34766 C 45.11140623064347 16.882783239267667 37.54604324643503 C 0.0 **** -0.24
34767 H 45.054075709786844 17.114894082248245 38.609497350287654 H 0.0 **** 0.06
34768 H 45.31921832469308 17.795515545933245 36.98619522043839 H 0.0 **** 0.06
34769 H 44.16218590659392 16.46125145121871 37.214152256904896 H 0.0 **** 0.06
34770 H 45.90903433011613 16.161127859768484 37.374172033222976 H 0.0 **** 0.06
34771 C 22.76678019959428 74.7868558953974 60.682006030447155 C 0.0 **** -0.24
34772 H 22.593255973006052 74.65142247012267 61.74947218224335 H 0.0 **** 0.06
34773 H 21.92527680491247 75.32297370715742 60.24225197057302 H 0.0 **** 0.06
34774 H 22.867238389193915 73.81178991226284 60.204861016493965 H 0.0 **** 0.06
34775 H 23.68205387947455 75.36026000285884 60.53332277759725 H 0.0 **** 0.06
34776 C 109.53076734470459 40.99862156878294 41.763674496170495 C 0.0 **** -0.24
34777 H 108.73090293005944 41.6901275259487 42.03033034290797 H 0.0 **** 0.06
34778 H 109.32534010365443 40.565288506801664 40.78437780271116 H 0.0 **** 0.06
34779 H 109.58839441552968 40.20501390825939 42.50790954745247 H 0.0 **** 0.06
34780 H 110.47884576134497 41.53618475945575 41.731533668709176 H 0.0 **** 0.06
34781 C 85.28726859678682 6.8788178375456965 48.464395865542656 C 0.0 **** -0.24
34782 H 85.29875910345513 5.905249155922377 47.97327377625715 H 0.0 **** 0.06
34783 H 86.04314337040023 7.522376686847537 48.01251283065551 H 0.0 **** 0.06
34784 H 85.50454050165365 6.7526326950237205 49.525268674221635 H 0.0 **** 0.06
34785 H 84.30405530599779 7.3332990195385435 48.34671709014444 H 0.0 **** 0.06
34786 C 95.78390995695962 105.28671537706354 81.08825326212975 C 0.0 **** -0.24
34787 H 95.8999929813352 106.24150624107483 80.57504470834341 H 0.0 **** 0.06
34788 H 95.82716532427342 105.44631666353885 82.16553003915139 H 0.0 **** 0.06
34789 H 96.58683390865365 104.61358365146201 80.78786739816503 H 0.0 **** 0.06
34790 H 94.82228802128262 104.84727056550003 80.82305639848005 H 0.0 **** 0.06
34791 C 102.31536053927596 11.552577520840515 55.82129072459833 C 0.0 **** -0.24
34792 H 103.28128756728559 11.258898903431202 55.411235026978204 H 0.0 **** 0.06
34793 H 101.90418689401649 10.7290137816602 56.40619151109826 H 0.0 **** 0.06
34794 H 101.63314142920848 11.794033636752317 55.00570692581738 H 0.0 **** 0.06
34795 H 102.44226263594113 12.425713494727091 56.4607414700813 H 0.0 **** 0.06
34796 C 81.93912041480363 22.491173410415115 8.467124079440245 C 0.0 **** -0.24
34797 H 82.62461078051342 22.048148418125663 9.189170926389734 H 0.0 **** 0.06
34798 H 81.93859774436442 23.575261289774005 8.58541658269613 H 0.0 **** 0.06
34799 H 80.93357578151671 22.105801904922515 8.6379154467715 H 0.0 **** 0.06
34800 H 82.25987776554842 22.235753525759492 7.457369530411249 H 0.0 **** 0.06
34801 C 69.02400033251683 49.358934553372876 10.593824499405043 C 0.0 **** -0.24
34802 H 69.08774277175866 50.418875878590086 10.84220768698758 H 0.0 **** 0.06
34803 H 68.3809968946299 49.229223506362956 9.722872421035396 H 0.0 **** 0.06
34804 H 68.606292828508 48.812411515742866 11.438734447929832 H 0.0 **** 0.06
34805 H 70.01980331738338 48.97728341164418 10.369635612743945 H 0.0 **** 0.06
34806 C 90.63616228159495 54.637680772070894 21.59699238609997 C 0.0 **** -0.24
34807 H 90.67353481194601 54.33464276169997 22.642602276837863 H 0.0 **** 0.06
34808 H 91.59203225886813 54.418253492246805 21.12052816291478 H 0.0 **** 0.06
34809 H 90.43729089202981 55.707615035028766 21.53601121692104 H 0.0 **** 0.06
34810 H 89.84204636686053 54.09113360840996 21.087786139994975 H 0.0 **** 0.06
34811 C 15.194445002896742 88.47438288514013 97.47730744118184 C 0.0 **** -0.24
34812 H 15.017365682955187 89.2445519883538 98.2283502855226 H 0.0 **** 0.06
34813 H 16.22726989008183 88.53522212391317 97.13184357103401 H 0.0 **** 0.06
34814 H 14.519095172347704 88.62735861037231 96.63458686162912 H 0.0 **** 0.06
34815 H 15.013710386233399 87.49227788273117 97.91385366935671 H 0.0 **** 0.06
34816 C 13.364219654530423 28.306821459029408 16.064136595885987 C 0.0 **** -0.24
34817 H 12.361620140391523 28.243987105347003 15.642727229516861 H 0.0 **** 0.06
34818 H 14.092178804017134 27.989848625828472 15.317793156544347 H 0.0 **** 0.06
34819 H 13.43211237297216 27.6578692614018 16.937621866594345 H 0.0 **** 0.06
34820 H 13.570409647171513 29.336360839213995 16.359443711736233 H 0.0 **** 0.06
34821 C 77.26349183389935 78.23891260241363 27.960508690254812 C 0.0 **** -0.24
34822 H 77.06712850183328 78.5899582544943 26.947786507031054 H 0.0 **** 0.06
34823 H 76.84744743698978 77.2389057257986 28.08511284801375 H 0.0 **** 0.06
34824 H 76.80137472683927 78.91731314128076 28.676642950358968 H 0.0 **** 0.06
34825 H 78.33972026446254 78.20810890426257 28.13200617358393 H 0.0 **** 0.06
34826 C 100.92159127571574 108.19966046289076 32.111047737598 C 0.0 **** -0.24
34827 H 100.34656644191489 109.07712370295359 31.811901177611446 H 0.0 **** 0.06
34828 H 101.84500664809497 108.5188489979092 32.59411873050908 H 0.0 **** 0.06
34829 H 101.15893693451369 107.60414408973568 31.22940032540569 H 0.0 **** 0.06
34830 H 100.3342222374863 107.60076327880739 32.806463151971315 H 0.0 **** 0.06
34831 C 8.209361617177947 17.957466551302716 103.83336982369633 C 0.0 **** -0.24
34832 H 8.319863877997065 17.40416597895441 102.90050884044365 H 0.0 **** 0.06
34833 H 8.371516793131036 17.284350544040336 104.67600940758172 H 0.0 **** 0.06
34834 H 7.205377329732471 18.376364936002958 103.89072390089359 H 0.0 **** 0.06
34835 H 8.942202579162398 18.7641602333224 103.8660704303299 H 0.0 **** 0.06
34836 C 95.96945153163534 58.02705722742016 15.90143692961999 C 0.0 **** -0.24
34837 H 96.75290835254546 58.27301588993913 16.61743801392052 H 0.0 **** 0.06
34838 H 96.07572842363226 56.98779997797735 15.589373656675704 H 0.0 **** 0.06
34839 H 96.05556991575244 58.67833214804915 15.031337227242048 H 0.0 **** 0.06
34840 H 94.99360173778524 58.168619179195275 16.365929400671433 H 0.0 **** 0.06
34841 C 103.20218911295291 46.94662396069916 101.08023497442504 C 0.0 **** -0.24
34842 H 103.0093177562303 47.366407303173 100.0934561738476 H 0.0 **** 0.06
34843 H 103.23619099088285 45.85812295633828 101.01136241451304 H 0.0 **** 0.06
34844 H 102.40521914256686 47.24198992578928 101.76278510807069 H 0.0 **** 0.06
34845 H 104.15739451003168 47.31718148830377 101.45244679563697 H 0.0 **** 0.06
34846 C 48.3538104030486 50.15774591886545 103.02055996963423 C 0.0 **** -0.24
34847 H 47.37717540686804 50.538567451749685 103.31724641402855 H 0.0 **** 0.06
34848 H 48.65189198296941 50.61790362804208 102.07755880088973 H 0.0 **** 0.06
34849 H 48.29876639515242 49.07573278512304 102.89555731522302 H 0.0 **** 0.06
34850 H 49.08696081934573 50.39840685088859 103.78971833639946 H 0.0 **** 0.06
34851 C 3.302422241755295 5.249785973597881 108.43347858205134 C 0.0 **** -0.24
34852 H 2.3952489037607165 5.31597591357513 109.0336912652764 H 0.0 **** 0.06
34853 H 3.808284474614311 4.306232900159927 108.64196104934192 H 0.0 **** 0.06
34854 H 3.9635838926235465 6.079243283991573 108.68151211458428 H 0.0 **** 0.06
34855 H 3.042208272771049 5.296798548589706 107.37531108697354 H 0.0 **** 0.06
34856 C 58.25324488305807 103.05861788591086 7.295751250149451 C 0.0 **** -0.24
34857 H 58.424206652117164 102.25475099942368 6.580227014994705 H 0.0 **** 0.06
34858 H 57.30545147293691 103.54857573817951 7.071401416504571 H 0.0 **** 0.06
34859 H 59.06278711721285 103.78460882008353 7.225449320218743 H 0.0 **** 0.06
34860 H 58.22019805408263 102.64762553058671 8.30400368820672 H 0.0 **** 0.06
34861 C 84.93138147102808 45.97639174632326 40.484904161444376 C 0.0 **** -0.24
34862 H 84.19643488897862 45.42919273951412 41.074078636719776 H 0.0 **** 0.06
34863 H 84.42620154012074 46.50699260466445 39.67665362818224 H 0.0 **** 0.06
34864 H 85.65370037473014 45.27727063591249 40.0647329035566 H 0.0 **** 0.06
34865 H 85.4482506807471 46.69284252352293 41.123387025652335 H 0.0 **** 0.06
34866 C 91.42448977729288 71.46809585352096 74.04068842726952 C 0.0 **** -0.24
34867 H 92.28365000501836 70.8724173780397 74.34888432909406 H 0.0 **** 0.06
34868 H 91.67004290342737 72.52751759322439 74.11590221714528 H 0.0 **** 0.06
34869 H 90.57621486586305 71.24481918860025 74.68844309825204 H 0.0 **** 0.06
34870 H 91.16693164210648 71.22680079974089 73.00927901275384 H 0.0 **** 0.06
34871 C 97.35071443855766 22.381267017300047 66.30673746852779 C 0.0 **** -0.24
34872 H 97.33787362952991 21.322430341687323 66.05003369671746 H 0.0 **** 0.06
34873 H 96.64088450715384 22.9160811257579 65.67598935505652 H 0.0 **** 0.06
34874 H 98.35232130389026 22.781780704449204 66.14790304410099 H 0.0 **** 0.06
34875 H 97.07294126561457 22.505038252763427 67.35378457482517 H 0.0 **** 0.06
34876 C 13.781788952343334 99.30952063811955 56.700564718615766 C 0.0 **** -0.24
34877 H 13.694876488046333 100.39352687449838 56.77949889118437 H 0.0 **** 0.06
34878 H 13.780553741351781 98.87186592965783 57.69966920540132 H 0.0 **** 0.06
34879 H 14.711022765429192 99.05504542384925 56.193016063691935 H 0.0 **** 0.06
34880 H 12.937668284310718 98.91868136577718 56.13200263151626 H 0.0 **** 0.06
34881 C 108.9405878026098 8.588801500249275 79.57528736458715 C 0.0 **** -0.24
34882 H 109.80632433369763 8.435966731238892 78.93206766611083 H 0.0 **** 0.06
34883 H 108.02956220942391 8.525550757372997 78.98043060740686 H 0.0 **** 0.06
34884 H 109.0032678558942 9.5729873881142 80.04116426482275 H 0.0 **** 0.06
34885 H 108.9238615110136 7.820708974769246 80.34962195175432 H 0.0 **** 0.06
34886 C 79.85576208459199 78.00225319127232 85.62227610191901 C 0.0 **** -0.24
34887 H 79.71586507773847 78.59153301836618 84.71630869012627 H 0.0 **** 0.06
34888 H 79.7489452092909 78.6475511371793 86.49514416727864 H 0.0 **** 0.06
34889 H 80.85209954363769 77.55943654405336 85.61769545434568 H 0.0 **** 0.06
34890 H 79.10746868769724 77.21102455736937 85.66092934934366 H 0.0 **** 0.06
34891 C 51.257410494856344 90.63693453991348 37.46291676033269 C 0.0 **** -0.24
34892 H 50.65329629100958 91.40271149543638 36.977735886477205 H 0.0 **** 0.06
34893 H 51.63576432273828 89.94343086510816 36.711511458692314 H 0.0 **** 0.06
34894 H 50.64617946695836 90.09451768788018 38.18364514966714 H 0.0 **** 0.06
34895 H 52.09469010110567 91.10712522549196 37.97781811083098 H 0.0 **** 0.06
34896 C 106.61091302311961 46.09069955024796 16.49198107606577 C 0.0 **** -0.24
34897 H 107.15760081116352 45.32993047315719 17.04819747562479 H 0.0 **** 0.06
34898 H 105.87276560825657 45.611881276654685 15.848341943579271 H 0.0 **** 0.06
34899 H 107.3078041193121 46.66448999241601 15.880827898345672 H 0.0 **** 0.06
34900 H 106.10599842611117 46.758614576365545 17.19006032937041 H 0.0 **** 0.06
34901 C 20.95560321473323 82.89279247627178 38.04953011772079 C 0.0 **** -0.24
34902 H 20.094577559637827 82.2810920077205 38.319304527537625 H 0.0 **** 0.06
34903 H 21.647583986393386 82.93776929594281 38.89054353242743 H 0.0 **** 0.06
34904 H 20.620992043090695 83.89970964299462 37.79957800746689 H 0.0 **** 0.06
34905 H 21.456913475225747 82.45214110126949 37.18815782925907 H 0.0 **** 0.06
34906 C 75.65712673878758 36.82149291625339 10.670574525571368 C 0.0 **** -0.24
34907 H 75.73369222680037 37.01248403995024 11.741143064994446 H 0.0 **** 0.06
34908 H 76.28660195167907 35.97095134508689 10.407962870679995 H 0.0 **** 0.06
34909 H 75.98710812306149 37.70193909944527 10.119489549105765 H 0.0 **** 0.06
34910 H 74.62042434631712 36.59983344590418 10.41542136402336 H 0.0 **** 0.06
34911 C 14.123221208566832 58.58595933233502 55.134915416252085 C 0.0 **** -0.24
34912 H 13.068389261767209 58.61971060353521 54.861386066704426 H 0.0 **** 0.06
34913 H 14.543090394706496 57.62322695862458 54.84632396878993 H 0.0 **** 0.06
34914 H 14.222804775483326 58.717420683547715 56.212582764104155 H 0.0 **** 0.06
34915 H 14.656159302332924 59.385896665029875 54.62085110180746 H 0.0 **** 0.06
34916 C 8.023246270138628 61.362526686484316 2.8803175449355507 C 0.0 **** -0.24
34917 H 7.959465746060943 62.378137768491186 2.4896936348961134 H 0.0 **** 0.06
34918 H 7.027700854568735 61.01954308469564 3.1640330613853394 H 0.0 **** 0.06
34919 H 8.67500977714721 61.348773244820066 3.754190569854373 H 0.0 **** 0.06
34920 H 8.429902798287628 60.70323202661089 2.113303271819518 H 0.0 **** 0.06
34921 C 52.42363449997946 93.77967983034775 56.81129421686899 C 0.0 **** -0.24
34922 H 51.89770340880173 94.34382468811752 57.58108438131961 H 0.0 **** 0.06
34923 H 52.45805743891724 94.36430416498882 55.891345647606755 H 0.0 **** 0.06
34924 H 51.90087960262635 92.84106712117395 56.626517654552 H 0.0 **** 0.06
34925 H 53.440180087928454 93.56940797933551 57.145347704440894 H 0.0 **** 0.06
34926 C 103.33065647280381 85.0896497034434 35.353251871333896 C 0.0 **** -0.24
34927 H 102.50653688603086 84.42077728975079 35.1045382206172 H 0.0 **** 0.06
34928 H 103.05348192373151 85.70085678466017 36.21341356795264 H 0.0 **** 0.06
34929 H 103.54426638036972 85.73508452932555 34.5019273150736 H 0.0 **** 0.06
34930 H 104.21504566215026 84.50105629861883 35.59469828043308 H 0.0 **** 0.06
34931 C 60.66639534702625 10.169250282369205 103.03724428306784 C 0.0 **** -0.24
34932 H 61.03084490309345 9.54331510151485 102.22285216534222 H 0.0 **** 0.06
34933 H 61.02935894954817 11.18853866603655 102.90282512496084 H 0.0 **** 0.06
34934 H 61.02858633759439 9.776708599715676 103.98745561774463 H 0.0 **** 0.06
34935 H 59.575776255195365 10.167497348205416 103.0355548626247 H 0.0 **** 0.06
34936 C 22.131300820262283 65.55509744041416 36.701398192458896 C 0.0 **** -0.24
34937 H 21.629054235456124 66.51913979705932 36.77791966248151 H 0.0 **** 0.06
34938 H 23.21074099537188 65.70885623733079 36.681123562694324 H 0.0 **** 0.06
34939 H 21.817681988292463 65.05344762637662 35.78536838614889 H 0.0 **** 0.06
34940 H 21.8681609108811 64.93984658863366 37.56117234046502 H 0.0 **** 0.06
34941 C 18.299389150167116 68.01298982138064 70.35806152343719 C 0.0 **** -0.24
34942 H 18.381459527579466 66.94361597894832 70.16324902690167 H 0.0 **** 0.06
34943 H 17.278367100414002 68.34057183836059 70.1591999615232 H 0.0 **** 0.06
34944 H 18.988102463328374 68.55426095079025 69.7091421026629 H 0.0 **** 0.06
34945 H 18.548996389856896 68.21188275047432 71.39925775154495 H 0.0 **** 0.06
34946 C 66.81331459052956 56.51781359281447 11.197233000091586 C 0.0 **** -0.24
34947 H 67.56630338903915 56.6233577265369 11.977868728083195 H 0.0 **** 0.06
34948 H 67.04336916958164 57.19714676962685 10.375636228474619 H 0.0 **** 0.06
34949 H 65.83192394653474 56.75804632825174 11.604105725807372 H 0.0 **** 0.06
34950 H 66.81313352080878 55.49151676178667 10.829763741667506 H 0.0 **** 0.06
34951 C 80.46078192800641 37.59488994812236 106.49833518826588 C 0.0 **** -0.24
34952 H 80.4415066726069 37.80008584079525 107.56831786836221 H 0.0 **** 0.06
34953 H 80.6211120843059 38.52469710791368 105.9529685880986 H 0.0 **** 0.06
34954 H 79.50974989049118 37.15534846960719 106.19585003523 H 0.0 **** 0.06
34955 H 81.26986263293983 36.899056487065764 106.27644542473166 H 0.0 **** 0.06
34956 C 37.732256498699655 46.76760479027012 77.52794433078991 C 0.0 **** -0.24
34957 H 37.40362290484279 46.247479440941 76.62877060294122 H 0.0 **** 0.06
34958 H 36.994046339996004 47.52279902676118 77.8003839738757 H 0.0 **** 0.06
34959 H 38.69144148967874 47.24894558993865 77.3390316080389 H 0.0 **** 0.06
34960 H 37.839081382015195 46.05269962513947 78.34379414109159 H 0.0 **** 0.06
34961 C 98.79553282751827 2.8556482060996586 84.48248936506407 C 0.0 **** -0.24
34962 H 98.28539723512603 3.0988122583801783 83.55016924384368 H 0.0 **** 0.06
34963 H 98.35790897375475 1.952498538262887 84.91028722340312 H 0.0 **** 0.06
34964 H 98.68276140730433 3.6826922227397745 85.18415574721476 H 0.0 **** 0.06
34965 H 99.85377653193326 2.6878255651652125 84.2849149843383 H 0.0 **** 0.06
34966 C 21.196029226008406 18.115078621718112 7.29605320277204 C 0.0 **** -0.24
34967 H 21.816161434847928 17.906935945792554 8.168565429612245 H 0.0 **** 0.06
34968 H 20.340317274262972 18.721511308635286 7.5950237345052045 H 0.0 **** 0.06
34969 H 20.843826294010256 17.176043844899027 6.868377300333748 H 0.0 **** 0.06
34970 H 21.783564746886242 18.655114601413175 6.553444944233789 H 0.0 **** 0.06
34971 C 77.80530424721103 80.08732453394919 25.114500590756222 C 0.0 **** -0.24
34972 H 78.20842982089708 80.75297501680427 24.350749904900255 H 0.0 **** 0.06
34973 H 77.57687898878744 80.66163404028407 26.01276747467125 H 0.0 **** 0.06
34974 H 78.54116095925784 79.31956426685247 25.351961948883115 H 0.0 **** 0.06
34975 H 76.89572374831612 79.61611227412669 24.742255808799 H 0.0 **** 0.06
34976 C 58.71239565996888 40.558498340621696 62.3788880087114 C 0.0 **** -0.24
34977 H 57.84342522924828 39.92861806457151 62.19141791169851 H 0.0 **** 0.06
34978 H 59.17496889397245 40.830949007581154 61.42996781825461 H 0.0 **** 0.06
34979 H 59.431700250477775 40.01263714526607 62.99035295603505 H 0.0 **** 0.06
34980 H 58.400572192360016 41.461124128165096 62.90443218295552 H 0.0 **** 0.06
34981 C 32.61725948481535 90.49477238458027 99.3288882050911 C 0.0 **** -0.24
34982 H 31.541289118518918 90.61316170540543 99.20215388690096 H 0.0 **** 0.06
34983 H 32.98218737856399 89.73322690393478 98.64000726057859 H 0.0 **** 0.06
34984 H 32.83086705009134 90.1912455079827 100.35362919387937 H 0.0 **** 0.06
34985 H 33.11360417836383 91.44230994093226 99.12004766107569 H 0.0 **** 0.06
34986 C 13.009010907898329 14.363739871794053 70.5364401687214 C 0.0 **** -0.24
34987 H 13.641470198672025 15.205026849296473 70.25175197845904 H 0.0 **** 0.06
34988 H 13.218619569067954 13.515266022432968 69.8858426350588 H 0.0 **** 0.06
34989 H 11.961345517627365 14.647982103937636 70.43868824105522 H 0.0 **** 0.06
34990 H 13.215523666441015 14.089181275995657 71.57145996587039 H 0.0 **** 0.06
34991 C 86.76288452782137 39.97096469672224 39.927901624988465 C 0.0 **** -0.24
34992 H 86.44497341075339 40.9337039325189 39.52729263275765 H 0.0 **** 0.06
34993 H 87.84574890892344 39.879917436003545 39.836473793683126 H 0.0 **** 0.06
34994 H 86.2813050143152 39.16809529980353 39.3708004614501 H 0.0 **** 0.06
34995 H 86.47921409763123 39.90459568309567 40.9790125534526 H 0.0 **** 0.06
34996 C 77.71269358602233 86.19754532501165 67.67160118632805 C 0.0 **** -0.24
34997 H 77.62871693987728 87.24022966180902 67.97747885016547 H 0.0 **** 0.06
34998 H 76.81916806683806 85.65507335653945 67.98217681926816 H 0.0 **** 0.06
34999 H 78.59066751998337 85.75098953427727 68.13734415623799 H 0.0 **** 0.06
35000 H 77.81032322376413 86.1442213041614 66.58710596462272 H 0.0 **** 0.06
35001 C 82.56855821750548 93.84222768461233 36.222886870359645 C 0.0 **** -0.24
35002 H 83.21557687145105 93.15564735130343 35.67872046787025 H 0.0 **** 0.06
35003 H 83.03434940257767 94.10416937180945 37.172844754907906 H 0.0 **** 0.06
35004 H 81.60657659696454 93.36348047031387 36.40937384955842 H 0.0 **** 0.06
35005 H 82.41607732993037 94.74563518880275 35.631126448712564 H 0.0 **** 0.06
35006 C 51.95836668064277 69.56672972167902 55.40505681841972 C 0.0 **** -0.24
35007 H 53.020381686623466 69.47774033059383 55.17815190889206 H 0.0 **** 0.06
35008 H 51.428834793974545 69.93529549716911 54.52661552634132 H 0.0 **** 0.06
35009 H 51.82071710686955 70.26295835667472 56.23201879971214 H 0.0 **** 0.06
35010 H 51.563966667861564 68.58897720745588 55.68358072212129 H 0.0 **** 0.06
35011 C 106.03738986589097 97.32922569602769 63.19031007270047 C 0.0 **** -0.24
35012 H 105.82584576118327 98.3930573194038 63.08209160374395 H 0.0 **** 0.06
35013 H 105.1226628173326 96.75947925517421 63.02365074019286 H 0.0 **** 0.06
35014 H 106.41026348406606 97.13377339345683 64.19519438068068 H 0.0 **** 0.06
35015 H 106.7893374681161 97.0327149673056 62.45912264907679 H 0.0 **** 0.06
35016 C 89.39142552808283 64.33848422634352 37.22496011601061 C 0.0 **** -0.24
35017 H 89.63705803507703 63.992672336865155 38.22924428496816 H 0.0 **** 0.06
35018 H 88.31334694242331 64.48133943991331 37.14422061013693 H 0.0 **** 0.06
35019 H 89.7156769611702 63.59532225482417 36.49662492836066 H 0.0 **** 0.06
35020 H 89.89949851689204 65.28233642250638 37.031712487719545 H 0.0 **** 0.06
35021 C 90.65437316764033 19.418641942450833 33.392988512155 C 0.0 **** -0.24
35022 H 91.43965949142597 20.063789499446415 33.78748173534194 H 0.0 **** 0.06
35023 H 90.9323125506902 19.0769112876918 32.39557999028119 H 0.0 **** 0.06
35024 H 89.71970075108803 19.975799996099827 33.34007180719692 H 0.0 **** 0.06
35025 H 90.5275548952867 18.558578527134006 34.05047228343153 H 0.0 **** 0.06
35026 C 55.52353489908526 103.48565397187335 94.3618941598439 C 0.0 **** -0.24
35027 H 55.38214011381078 104.13399546536748 95.22736960691213 H 0.0 **** 0.06
35028 H 55.872377317228654 102.50803276265198 94.69362081074452 H 0.0 **** 0.06
35029 H 56.262915382820324 103.92858704001834 93.69350898980318 H 0.0 **** 0.06
35030 H 54.576313491709186 103.37474495487814 93.83363789387171 H 0.0 **** 0.06
35031 C 96.09594843583409 51.44809696253678 6.956175480025557 C 0.0 **** -0.24
35032 H 95.21777097212885 52.08403987943978 7.065435651074326 H 0.0 **** 0.06
35033 H 96.04105252639869 50.911897566238146 6.009153582831141 H 0.0 **** 0.06
35034 H 96.13133385482132 50.733645360594025 7.778510956173886 H 0.0 **** 0.06
35035 H 96.99533795843223 52.066089541620926 6.9721651419804545 H 0.0 **** 0.06
35036 C 64.48145012773537 92.72996841127429 5.54216060166695 C 0.0 **** -0.24
35037 H 65.12534554698045 91.90453035358394 5.238648553047653 H 0.0 **** 0.06
35038 H 64.68815495238378 92.9899074902608 6.579998555949885 H 0.0 **** 0.06
35039 H 63.43741048728994 92.43224355230362 5.441577132724177 H 0.0 **** 0.06
35040 H 64.67504593588167 93.59352408595362 4.905613558737258 H 0.0 **** 0.06
35041 C 13.333749900074451 16.20291991704758 5.926889848622906 C 0.0 **** -0.24
35042 H 14.18158526976482 16.531637550720006 5.326713444161527 H 0.0 **** 0.06
35043 H 13.06133168032838 16.988357320755256 6.631985778780063 H 0.0 **** 0.06
35044 H 13.605583975996467 15.301046859669356 6.475474475085818 H 0.0 **** 0.06
35045 H 12.487138698065639 15.989954735202133 5.273737341526072 H 0.0 **** 0.06
35046 C 95.9586150646108 48.43695554836549 103.40971660313986 C 0.0 **** -0.24
35047 H 96.11331933530852 47.518465617638356 103.97668639436986 H 0.0 **** 0.06
35048 H 95.65483482467488 49.23482188076949 104.08726714524715 H 0.0 **** 0.06
35049 H 95.17962358630393 48.274966838318335 102.6639868589948 H 0.0 **** 0.06
35050 H 96.88643881546213 48.71659009390697 102.91065400958195 H 0.0 **** 0.06
35051 C 76.25718472488245 41.09500288375435 11.977512390815217 C 0.0 **** -0.24
35052 H 76.14341529003087 41.842404366819835 11.19165270045038 H 0.0 **** 0.06
35053 H 76.98754510771839 40.34852488446563 11.665651585810554 H 0.0 **** 0.06
35054 H 75.29762506469548 40.61105579340085 12.15979607026076 H 0.0 **** 0.06
35055 H 76.59969213816416 41.57898805248888 12.89202038995709 H 0.0 **** 0.06
35056 C 38.73516837274076 63.39089985477386 82.23230755382086 C 0.0 **** -0.24
35057 H 38.668736565743785 63.751586496217726 81.20612443266282 H 0.0 **** 0.06
35058 H 38.687944037164414 62.301883459238354 82.23878998988458 H 0.0 **** 0.06
35059 H 37.90697213395026 63.795207862573136 82.81424044008934 H 0.0 **** 0.06
35060 H 39.6795050952409 63.716567145660235 82.67042274007422 H 0.0 **** 0.06
35061 C 88.8653716049716 52.58812831405524 67.39793857190435 C 0.0 **** -0.24
35062 H 88.86633672373279 51.51355975015025 67.58383744371025 H 0.0 **** 0.06
35063 H 89.87803328243412 52.97657212438028 67.50505338803436 H 0.0 **** 0.06
35064 H 88.20929219125762 53.07952483321645 68.11630694559528 H 0.0 **** 0.06
35065 H 88.50690774679225 52.78148679446005 66.38708942202268 H 0.0 **** 0.06
35066 C 105.89064977630073 61.80996057821045 63.222441336305934 C 0.0 **** -0.24
35067 H 105.42096916996724 61.07141912869591 63.87245790657397 H 0.0 **** 0.06
35068 H 106.33703018401613 62.59704784679161 63.830706129428194 H 0.0 **** 0.06
35069 H 105.13815978225645 62.24349474352755 62.56358186044574 H 0.0 **** 0.06
35070 H 106.66321382101472 61.32921759195361 62.62391669429671 H 0.0 **** 0.06
35071 C 22.343696811323454 5.865539540293895 46.44099684668897 C 0.0 **** -0.24
35072 H 22.082276722274656 5.72586615454702 45.391682887171015 H 0.0 **** 0.06
35073 H 21.519556113434252 6.3577077329496205 46.957488326217444 H 0.0 **** 0.06
35074 H 23.238407021860827 6.484175548974093 46.51192637832331 H 0.0 **** 0.06
35075 H 22.53412179138996 4.895959621898555 46.90035720120172 H 0.0 **** 0.06
35076 C 69.3473228414614 48.66948417443558 0.3883201814267494 C 0.0 **** -0.24
35077 H 69.59803762885794 48.1672501955054 -0.5461074490079483 H 0.0 **** 0.06
35078 H 68.38472789947153 49.17146884683592 0.2831189167971644 H 0.0 **** 0.06
35079 H 70.11734328903286 49.40392060491445 0.6238185628401993 H 0.0 **** 0.06
35080 H 69.28782607982222 47.93385737553163 1.191005833120272 H 0.0 **** 0.06
35081 C 43.81485003449643 91.47807703671268 73.22069879038702 C 0.0 **** -0.24
35082 H 42.77867448814624 91.81090609005577 73.2771691190004 H 0.0 **** 0.06
35083 H 43.90161104235797 90.68502173712164 72.47758055505057 H 0.0 **** 0.06
35084 H 44.12845296573555 91.09971852584124 74.19407330442607 H 0.0 **** 0.06
35085 H 44.45063175592219 92.31566380213144 72.93402847649759 H 0.0 **** 0.06
35086 C 42.57973525765179 74.44549599039631 67.78500069213068 C 0.0 **** -0.24
35087 H 41.80564973397951 74.09058751137681 68.46636733543595 H 0.0 **** 0.06
35088 H 42.45956927506864 73.96162943561413 66.81562142421238 H 0.0 **** 0.06
35089 H 43.56094187741912 74.20367805407825 68.19329043045583 H 0.0 **** 0.06
35090 H 42.490949045290414 75.52518513897677 67.66563485848594 H 0.0 **** 0.06
35091 C 23.585944015027536 60.27098534579051 82.4492980350585 C 0.0 **** -0.24
35092 H 23.34167646562085 60.9366017634069 83.27635906353458 H 0.0 **** 0.06
35093 H 24.616360772271264 60.441538295030725 82.13734633347572 H 0.0 **** 0.06
35094 H 22.915000443999077 60.471003423051016 81.613453317665 H 0.0 **** 0.06
35095 H 23.46972675655607 59.23526526993244 82.76916262844412 H 0.0 **** 0.06
35096 C 18.365625395388548 103.21887917048115 59.617022511503265 C 0.0 **** -0.24
35097 H 18.911395086833778 103.91575855899572 58.9795921150425 H 0.0 **** 0.06
35098 H 18.099844857546287 102.33265696861598 59.040251493458555 H 0.0 **** 0.06
35099 H 17.45850644446395 103.69874140991338 59.984748382057475 H 0.0 **** 0.06
35100 H 18.992809205963397 102.93125622917579 60.46056406486177 H 0.0 **** 0.06
35101 C 83.53523871876901 62.979070493491065 82.99597225742622 C 0.0 **** -0.24
35102 H 83.02474857621544 63.188848130882775 82.0566501813596 H 0.0 **** 0.06
35103 H 84.51891831628484 62.55738045686229 82.7890717176267 H 0.0 **** 0.06
35104 H 82.94891183777375 62.266802792856595 83.57751282661704 H 0.0 **** 0.06
35105 H 83.64751199377804 63.90424933331349 83.56177497807622 H 0.0 **** 0.06
35106 C 38.07066309475488 71.98333588107721 54.66728822910932 C 0.0 **** -0.24
35107 H 37.94879435382654 71.72415346893871 55.71936683354531 H 0.0 **** 0.06
35108 H 37.21000774522372 71.62355988023461 54.1036904582443 H 0.0 **** 0.06
35109 H 38.977854920190225 71.51711305262609 54.281500485071746 H 0.0 **** 0.06
35110 H 38.1464674706975 73.06513664996635 54.56575710376234 H 0.0 **** 0.06
35111 C 3.413154674505961 93.16624431956916 5.62578305115019 C 0.0 **** -0.24
35112 H 4.139122397277532 92.41610779912759 5.9387413685603185 H 0.0 **** 0.06
35113 H 3.3251102645377557 93.931180006521 6.39696228772895 H 0.0 **** 0.06
35114 H 2.4435271151764937 92.6906446301831 5.472916193554655 H 0.0 **** 0.06
35115 H 3.743144328189743 93.6245973921389 4.694246640055864 H 0.0 **** 0.06
35116 C 98.6347503157504 70.86092595352721 76.5248467472488 C 0.0 **** -0.24
35117 H 99.22671219505825 70.69935546763105 75.6241553692875 H 0.0 **** 0.06
35118 H 97.8250460818874 70.13106330221945 76.56205570601534 H 0.0 **** 0.06
35119 H 98.2169300354079 71.86716596289614 76.50951436876451 H 0.0 **** 0.06
35120 H 99.27009327097169 70.74428823931339 77.40239663150615 H 0.0 **** 0.06
35121 C 83.18204529558197 101.48535927550611 80.7381070865105 C 0.0 **** -0.24
35122 H 83.29078838892816 102.06354450991307 81.65586612497123 H 0.0 **** 0.06
35123 H 82.83107253543038 100.48180065584205 80.98097153623252 H 0.0 **** 0.06
35124 H 84.14550491606472 101.42091767418788 80.23310741341868 H 0.0 **** 0.06
35125 H 82.46074273536647 101.97471577824939 80.0838191681072 H 0.0 **** 0.06
35126 C 108.50880480977267 0.40137018266767654 73.99695565042599 C 0.0 **** -0.24
35127 H 108.66596554419574 1.4043940551366632 74.3925835529878 H 0.0 **** 0.06
35128 H 107.87511084220661 0.45448643185505944 73.11214016541747 H 0.0 **** 0.06
35129 H 108.0250154367132 -0.21571559780733196 74.75438674795004 H 0.0 **** 0.06
35130 H 109.47024351429685 -0.03762896887752731 73.73064902108912 H 0.0 **** 0.06
35131 C 39.22004472049446 31.102846821359435 42.521593300573215 C 0.0 **** -0.24
35132 H 40.04228228063758 31.72955067294791 42.86404394146882 H 0.0 **** 0.06
35133 H 39.61613246765461 30.26307464467959 41.94936072284318 H 0.0 **** 0.06
35134 H 38.55292724566317 31.6904177272599 41.891693691955425 H 0.0 **** 0.06
35135 H 38.66775633363255 30.726336279018028 43.38368338037381 H 0.0 **** 0.06
35136 C 100.18266691921232 96.95226637160764 13.818172503803055 C 0.0 **** -0.24
35137 H 99.75721539501399 97.93701050718713 14.01371762444461 H 0.0 **** 0.06
35138 H 99.73373268916197 96.22227251707739 14.492501759293987 H 0.0 **** 0.06
35139 H 101.25948858561497 96.98293716871979 13.97991981361102 H 0.0 **** 0.06
35140 H 99.97753598623595 96.66806561363916 12.7850514091773 H 0.0 **** 0.06
35141 C 74.55137800622163 98.45915530865274 65.79499915019483 C 0.0 **** -0.24
35142 H 75.45232493972958 97.8787210198741 65.5996342171504 H 0.0 **** 0.06
35143 H 74.19405644851741 98.24643243403 66.80275664397948 H 0.0 **** 0.06
35144 H 73.78092390870319 98.19068058018048 65.0715292365898 H 0.0 **** 0.06
35145 H 74.77748607644429 99.52173247301182 65.70733637209878 H 0.0 **** 0.06
35146 C 27.086044792829625 9.083072933928747 102.59342634832124 C 0.0 **** -0.24
35147 H 26.009543970684973 9.208754966591243 102.70587113412323 H 0.0 **** 0.06
35148 H 27.589754351151413 9.45192726171615 103.48785472002957 H 0.0 **** 0.06
35149 H 27.429315063378 9.645436208656577 101.72504570864601 H 0.0 **** 0.06
35150 H 27.315897689616236 8.026230908888408 102.45663285072456 H 0.0 **** 0.06
35151 C 8.999874620671621 24.32465608620521 67.47573221508813 C 0.0 **** -0.24
35152 H 9.531516331976047 24.262623910560436 68.42511303913375 H 0.0 **** 0.06
35153 H 7.92512892862422 24.298737556005648 67.65956600418242 H 0.0 **** 0.06
35154 H 9.281306434191425 23.480423419443866 66.8462544905987 H 0.0 **** 0.06
35155 H 9.260394651424072 25.255925726608126 66.97395440078348 H 0.0 **** 0.06
35156 C 105.37787392589368 106.55074628779224 32.483000281252004 C 0.0 **** -0.24
35157 H 104.70580336036438 105.93190431419957 33.07661259274727 H 0.0 **** 0.06
35158 H 105.30920322330665 106.25667187921967 31.435074472015174 H 0.0 **** 0.06
35159 H 106.40143886695007 106.41500008034885 32.83221603121348 H 0.0 **** 0.06
35160 H 105.09405920097933 107.59779558587095 32.58577089509885 H 0.0 **** 0.06
35161 C 68.69830005404575 36.28813002006183 84.79207741359164 C 0.0 **** -0.24
35162 H 68.30377360279796 37.29250630047318 84.64013334302297 H 0.0 **** 0.06
35163 H 67.87905628843816 35.6078071930032 85.02840018715295 H 0.0 **** 0.06
35164 H 69.41184271939647 36.29933781947483 85.61667681287173 H 0.0 **** 0.06
35165 H 69.19852760555038 35.95286876729608 83.88309931131897 H 0.0 **** 0.06
35166 C 76.14358638464813 56.37935164540835 33.144737315348664 C 0.0 **** -0.24
35167 H 75.74542961884106 57.03514004044996 33.91903224298483 H 0.0 **** 0.06
35168 H 75.39554640849803 55.63129645470639 32.882684887058474 H 0.0 **** 0.06
35169 H 77.04033878382859 55.882949867051536 33.514464554651454 H 0.0 **** 0.06
35170 H 76.3924363059757 56.968795319533626 32.262553257989566 H 0.0 **** 0.06
35171 C 96.26097400842362 0.7646696882182482 16.712696104864506 C 0.0 **** -0.24
35172 H 96.44888001458176 0.26788912092820283 17.664479829595308 H 0.0 **** 0.06
35173 H 95.50706690216143 0.20695538982943162 16.15570348633854 H 0.0 **** 0.06
35174 H 97.18359196228698 0.8035101769970083 16.135184806897527 H 0.0 **** 0.06
35175 H 95.90298395512356 1.7774783279620578 16.89528746137458 H 0.0 **** 0.06
35176 C 2.670028909240898 100.30379377647495 87.56524506341304 C 0.0 **** -0.24
35177 H 1.6504799060583508 100.11132260340747 87.89960647251459 H 0.0 **** 0.06
35178 H 2.6944100358928154 100.3465693097808 86.47579853514235 H 0.0 **** 0.06
35179 H 3.323548448674572 99.50333669114131 87.91286490895429 H 0.0 **** 0.06
35180 H 3.0125632923040797 101.25455891849654 87.97466995837858 H 0.0 **** 0.06
35181 C 79.85200241062353 102.0757612171592 66.66711048846912 C 0.0 **** -0.24
35182 H 80.85684753116132 102.23976009906764 67.0571342631034 H 0.0 **** 0.06
35183 H 79.91318656339772 101.52896898341862 65.72608359004948 H 0.0 **** 0.06
35184 H 79.36687750435576 103.03704011429502 66.49884417733138 H 0.0 **** 0.06
35185 H 79.27290426945297 101.49775196225363 67.38796453464764 H 0.0 **** 0.06
35186 C 30.98440281194587 69.26499654926194 16.280943313549415 C 0.0 **** -0.24
35187 H 29.959624269836212 69.02097125246765 16.56469948218262 H 0.0 **** 0.06
35188 H 31.153003279755296 68.9759790347241 15.243478311147555 H 0.0 **** 0.06
35189 H 31.677958106376565 68.72649883709872 16.926895431235778 H 0.0 **** 0.06
35190 H 31.14464273737694 70.33776593161755 16.39111095367275 H 0.0 **** 0.06
35191 C 34.3874174508847 53.176440990169944 43.363600901196776 C 0.0 **** -0.24
35192 H 34.07266009322609 53.40150975863352 44.382198308070485 H 0.0 **** 0.06
35193 H 33.53304662753857 53.26210906121939 42.69173159054361 H 0.0 **** 0.06
35194 H 34.783028537867125 52.161472263465086 43.32196882364315 H 0.0 **** 0.06
35195 H 35.16093454490718 53.880672877361604 43.0585048825298 H 0.0 **** 0.06
35196 C 39.53678996408456 73.42140442093199 44.90442117357969 C 0.0 **** -0.24
35197 H 40.029438157759245 72.48699779792355 45.17092787352672 H 0.0 **** 0.06
35198 H 39.793213202144244 74.18864021117298 45.63600938009654 H 0.0 **** 0.06
35199 H 38.45629191928387 73.2730569469444 44.89728419993162 H 0.0 **** 0.06
35200 H 39.86613849239751 73.73689577630347 43.91475982653452 H 0.0 **** 0.06
35201 C 97.35678748956656 79.38352747640107 78.74066782494901 C 0.0 **** -0.24
35202 H 97.53665121361615 78.43769321522183 78.2301960565253 H 0.0 **** 0.06
35203 H 96.30741599653663 79.4481932286975 79.02640480049172 H 0.0 **** 0.06
35204 H 97.60378864346865 80.20920654995751 78.07258893030678 H 0.0 **** 0.06
35205 H 97.98050045438373 79.43857269894085 79.63289202591545 H 0.0 **** 0.06
35206 C 0.07790895341706516 109.09265663236432 3.0174834511482977 C 0.0 **** -0.24
35207 H 1.0140919672081026 109.03275586243704 2.462713128727259 H 0.0 **** 0.06
35208 H -0.4647861804327391 109.98947717172132 2.717477100861692 H 0.0 **** 0.06
35209 H 0.29184391401152254 109.1368181892021 4.085638159570047 H 0.0 **** 0.06
35210 H -0.5271196944782446 108.21191229011193 2.8044985828938014 H 0.0 **** 0.06
35211 C 17.40752848609762 34.019055708554404 30.113185610890817 C 0.0 **** -0.24
35212 H 16.58661418811093 33.34597304244606 30.35983371466049 H 0.0 **** 0.06
35213 H 17.46633255170454 34.80912317515521 30.861471196958554 H 0.0 **** 0.06
35214 H 17.233007967739894 34.46024454851815 29.131591048063015 H 0.0 **** 0.06
35215 H 18.343657500653364 33.45964073900643 30.099391003933988 H 0.0 **** 0.06
35216 C 3.5738985457395813 29.218843185575317 62.97003107692592 C 0.0 **** -0.24
35217 H 3.546005435101449 30.105777911274735 63.60373579930325 H 0.0 **** 0.06
35218 H 2.8078402710856096 29.298389168266695 62.19887933622482 H 0.0 **** 0.06
35219 H 3.3883281782170798 28.333531030509747 63.577282947202036 H 0.0 **** 0.06
35220 H 4.555358320664595 29.139394818261984 62.50135999159633 H 0.0 **** 0.06
35221 C 100.2970664788765 81.90886285821188 78.01198019471111 C 0.0 **** -0.24
35222 H 100.96363683491415 82.5732390072074 77.46269600337293 H 0.0 **** 0.06
35223 H 100.72270663000836 81.69887296373972 78.99385881814007 H 0.0 **** 0.06
35224 H 100.1762792761931 80.97693363244571 77.46064982110707 H 0.0 **** 0.06
35225 H 99.32532715067521 82.38847835505038 78.13149396294024 H 0.0 **** 0.06
35226 C 24.24801604007976 34.992773055599606 80.60887030650488 C 0.0 **** -0.24
35227 H 24.780309620173057 35.5155266801615 79.81351308465361 H 0.0 **** 0.06
35228 H 24.690189878486564 34.00703040009508 80.75415137031752 H 0.0 **** 0.06
35229 H 23.199598069841954 34.88473379784671 80.33364118822911 H 0.0 **** 0.06
35230 H 24.323899383128037 35.5657510959307 81.53296594145638 H 0.0 **** 0.06
35231 C 46.78186422446515 100.74888090213227 28.26866430995176 C 0.0 **** -0.24
35232 H 46.11407374156971 100.28790032359242 27.540817041794696 H 0.0 **** 0.06
35233 H 47.727768483785724 100.20660754604954 28.288200329074925 H 0.0 **** 0.06
35234 H 46.32140812067229 100.71408024875632 29.25649273664311 H 0.0 **** 0.06
35235 H 46.96359894342595 101.78651163672697 27.988475410728142 H 0.0 **** 0.06
35236 C 100.51704097382795 54.89033561954766 52.30757718044948 C 0.0 **** -0.24
35237 H 100.91017325562973 55.70729700390416 51.70101221454779 H 0.0 **** 0.06
35238 H 101.1217679836623 54.78368562252289 53.209050954541006 H 0.0 **** 0.06
35239 H 100.55038123323119 53.964532762100646 51.73532615140953 H 0.0 **** 0.06
35240 H 99.48557384711587 55.10945130735489 52.585810548329945 H 0.0 **** 0.06
35241 C 86.96761302997572 11.485556645592794 7.334358305185205 C 0.0 **** -0.24
35242 H 87.1593770314924 11.983884011840445 8.284996670967047 H 0.0 **** 0.06
35243 H 87.851237483859 10.922498001647966 7.0340090950021334 H 0.0 **** 0.06
35244 H 86.73525816196826 12.231798296351343 6.574434302686484 H 0.0 **** 0.06
35245 H 86.12252747237591 10.805101342123663 7.445910622382755 H 0.0 **** 0.06
35246 C 103.29040165016737 0.42693227521914423 108.21078853273563 C 0.0 **** -0.24
35247 H 103.9956297240756 0.02243047271872456 108.9366676599325 H 0.0 **** 0.06
35248 H 103.69662740414203 1.3425273743310981 107.7810605844535 H 0.0 **** 0.06
35249 H 102.34485791164143 0.6454061653903409 108.70648605272127 H 0.0 **** 0.06
35250 H 103.12437531614601 -0.30479534766379857 107.41950485663796 H 0.0 **** 0.06
35251 C 67.16915931361478 14.128835917986606 77.74484246371924 C 0.0 **** -0.24
35252 H 67.5097247443365 15.086351577591813 77.35000725413343 H 0.0 **** 0.06
35253 H 67.50793978607624 14.019050381588755 78.77492584899386 H 0.0 **** 0.06
35254 H 67.57950853361797 13.319971750416968 77.13890168766265 H 0.0 **** 0.06
35255 H 66.07983498101453 14.08906787028917 77.71352285336515 H 0.0 **** 0.06
35256 C 27.55243622865771 62.69605629654549 16.221688878725246 C 0.0 **** -0.24
35257 H 28.149721298641907 61.8173029366493 15.97864374448335 H 0.0 **** 0.06
35258 H 27.46705592961888 63.33167883146507 15.33999160053449 H 0.0 **** 0.06
35259 H 28.035174086545965 63.252631419332545 17.025615620722675 H 0.0 **** 0.06
35260 H 26.558834010065254 62.38356009192955 16.54264153426095 H 0.0 **** 0.06
35261 C 27.36205377617118 31.597566068092704 3.1172989715086317 C 0.0 **** -0.24
35262 H 26.763639857825275 31.071794143486812 2.373694575168358 H 0.0 **** 0.06
35263 H 28.404654583939013 31.288746884072353 3.028968716915628 H 0.0 **** 0.06
35264 H 26.99529127679204 31.356150311125987 4.115626889416063 H 0.0 **** 0.06
35265 H 27.285544637305193 32.67250618320833 2.9526448441016555 H 0.0 **** 0.06
35266 C 104.07102425731804 29.273941419963478 82.24494073695674 C 0.0 **** -0.24
35267 H 103.70218075825233 30.299630948774364 82.27287574705151 H 0.0 **** 0.06
35268 H 103.27840518029424 28.612668247026846 81.89215646004153 H 0.0 **** 0.06
35269 H 104.37775324448137 28.971351338712054 83.24633199446521 H 0.0 **** 0.06
35270 H 104.92370074802284 29.21247191870239 81.56919956298226 H 0.0 **** 0.06
35271 C 13.872503466536067 101.00933306557799 45.80970535789069 C 0.0 **** -0.24
35272 H 14.851239386413123 101.03533944048868 46.289001239320356 H 0.0 **** 0.06
35273 H 13.574868984441778 102.02180550410893 45.53538040249458 H 0.0 **** 0.06
35274 H 13.14047109168484 100.59102152650757 46.50141699010996 H 0.0 **** 0.06
35275 H 13.921888604610714 100.38962298853991 44.914867189333336 H 0.0 **** 0.06
35276 C 45.768017750496625 109.37805166363677 92.95238362788615 C 0.0 **** -0.24
35277 H 46.240569349271 110.33693592039293 93.16576554265993 H 0.0 **** 0.06
35278 H 46.210709287523855 108.94688532638185 92.05399635089265 H 0.0 **** 0.06
35279 H 44.69883626669528 109.52621471979472 92.79629520961839 H 0.0 **** 0.06
35280 H 45.92096440152716 108.70204390289706 93.79345477630574 H 0.0 **** 0.06
35281 C 14.632460011257137 76.80381935659005 107.05320822199491 C 0.0 **** -0.24
35282 H 14.650015038349764 77.1662886038834 108.08066318068109 H 0.0 **** 0.06
35283 H 15.653741739209977 76.63826342256834 106.7082331589744 H 0.0 **** 0.06
35284 H 14.149211768242864 77.54441691594133 106.41575840703592 H 0.0 **** 0.06
35285 H 14.077091005354035 75.86717783970087 107.00773532392805 H 0.0 **** 0.06
35286 C 13.740962845342764 49.707833133324876 29.01502631971678 C 0.0 **** -0.24
35287 H 14.691371926606966 49.81950756255992 29.537802859050828 H 0.0 **** 0.06
35288 H 13.372151068366922 50.68977968597131 28.71749020887171 H 0.0 **** 0.06
35289 H 13.016438856516697 49.23106806522172 29.67583640044012 H 0.0 **** 0.06
35290 H 13.88486934150761 49.08985673996749 28.128090009551812 H 0.0 **** 0.06
35291 C 90.06995537861513 51.84101196002168 85.49562080747387 C 0.0 **** -0.24
35292 H 89.66984838259032 52.63580769412425 86.12516270157647 H 0.0 **** 0.06
35293 H 90.65121913749476 52.27904972025848 84.6839378337059 H 0.0 **** 0.06
35294 H 89.2482622607991 51.25751351436836 85.08147252349073 H 0.0 **** 0.06
35295 H 90.71061908678865 51.19196963570724 86.09328792026287 H 0.0 **** 0.06
35296 C 34.238945694535914 25.317528752778088 65.94153082006136 C 0.0 **** -0.24
35297 H 33.538338176477 26.14937631449297 66.0219152807685 H 0.0 **** 0.06
35298 H 33.88501337153281 24.4849781230117 66.55035449824612 H 0.0 **** 0.06
35299 H 35.22038964626614 25.63494868698026 66.29404213295132 H 0.0 **** 0.06
35300 H 34.31096868005932 25.002698106494446 64.90035109021173 H 0.0 **** 0.06
35301 C 52.6403165126539 75.99640747158762 78.30534514536424 C 0.0 **** -0.24
35302 H 53.71238593999129 76.16410889204866 78.19943826110415 H 0.0 **** 0.06
35303 H 52.12972695060478 76.95645271085482 78.38956135111061 H 0.0 **** 0.06
35304 H 52.452653132518606 75.40501229602745 79.201402093654 H 0.0 **** 0.06
35305 H 52.26802729192775 75.46061271686796 77.43251437662155 H 0.0 **** 0.06
35306 C 73.59427647489662 106.0351767025389 70.57202471130171 C 0.0 **** -0.24
35307 H 74.33508878121751 105.3144052047191 70.91592929526675 H 0.0 **** 0.06
35308 H 73.59564080467197 106.90245733855483 71.23344014572618 H 0.0 **** 0.06
35309 H 72.60739478516939 105.57369643974641 70.57985441765723 H 0.0 **** 0.06
35310 H 73.83932012940022 106.3518773068763 69.55749857927435 H 0.0 **** 0.06
35311 C 26.100599591449225 109.5671580993071 106.76181952760646 C 0.0 **** -0.24
35312 H 26.2201444011655 108.48408655875627 106.7446755378954 H 0.0 **** 0.06
35313 H 26.887680192859477 110.00900275157066 107.37285577264943 H 0.0 **** 0.06
35314 H 25.127468846300758 109.81763282884003 107.18352890520899 H 0.0 **** 0.06
35315 H 26.16739401294967 109.95564698611439 105.74532664509907 H 0.0 **** 0.06
35316 C 87.28001843042381 73.23613083212547 5.4255729536075705 C 0.0 **** -0.24
35317 H 87.74089406283021 72.65041516263477 6.220727436290872 H 0.0 **** 0.06
35318 H 86.79303227678173 74.1116030649012 5.855709844623391 H 0.0 **** 0.06
35319 H 86.53910183108958 72.62535865709208 4.908147705916434 H 0.0 **** 0.06
35320 H 88.04503910100462 73.55502271701212 4.718388288219018 H 0.0 **** 0.06
35321 C 91.85432437015152 57.17725505198354 106.00749986072844 C 0.0 **** -0.24
35322 H 92.8520157404244 57.45313802136991 106.34904983197958 H 0.0 **** 0.06
35323 H 91.91407791262844 56.26898989559439 105.40842411529536 H 0.0 **** 0.06
35324 H 91.4418476832792 57.98501420403126 105.40266846705697 H 0.0 **** 0.06
35325 H 91.21103088932233 57.003662221555096 106.86996833883546 H 0.0 **** 0.06
35326 C 57.520433172404296 37.423406535579545 81.74350309939406 C 0.0 **** -0.24
35327 H 58.09529497779715 36.635859456890756 81.25712122747653 H 0.0 **** 0.06
35328 H 57.35290550573097 37.15884402686487 82.78776649774308 H 0.0 **** 0.06
35329 H 56.56096277524978 37.5377166728299 81.23931107167371 H 0.0 **** 0.06
35330 H 58.07289681816806 38.36211823996365 81.69005989177315 H 0.0 **** 0.06
35331 C 17.124272938874185 15.04198092833957 61.44253262945426 C 0.0 **** -0.24
35332 H 17.74342740752371 14.408597599298801 60.808146225275294 H 0.0 **** 0.06
35333 H 16.51539020727597 14.416732528068223 62.09709753903219 H 0.0 **** 0.06
35334 H 16.47426489359583 15.656387116585549 60.818431267589716 H 0.0 **** 0.06
35335 H 17.763002209738602 15.687199428754809 62.04645804989339 H 0.0 **** 0.06
35336 C 66.44251855598907 78.1406717043422 30.442335779193314 C 0.0 **** -0.24
35337 H 65.97259330751399 79.05907320276287 30.08958963461626 H 0.0 **** 0.06
35338 H 66.00648821753794 77.28647374334662 29.923814538175066 H 0.0 **** 0.06
35339 H 66.2776037682197 78.03742328673522 31.51499591079414 H 0.0 **** 0.06
35340 H 67.51336195647468 78.18072958498414 30.241929542970865 H 0.0 **** 0.06
35341 C 54.07930209092501 40.44756451859601 53.55691277301867 C 0.0 **** -0.24
35342 H 54.50143878552828 40.91767326050133 52.66843302101046 H 0.0 **** 0.06
35343 H 53.151024458728756 40.95132664973771 53.827481146776506 H 0.0 **** 0.06
35344 H 54.78866329961011 40.52399469912072 54.380622635910754 H 0.0 **** 0.06
35345 H 53.87476452277559 39.39643892820518 53.34875097209073 H 0.0 **** 0.06
35346 C 39.04768697943604 93.35095663641863 73.64618953409433 C 0.0 **** -0.24
35347 H 38.3753690942668 93.51517163039856 74.48792876369924 H 0.0 **** 0.06
35348 H 38.55564300181149 92.71824767491938 72.90689256986389 H 0.0 **** 0.06
35349 H 39.95692970917031 92.86135269896593 73.99674561620105 H 0.0 **** 0.06
35350 H 39.30182259631917 94.30923546543717 73.19318772726547 H 0.0 **** 0.06
35351 C 43.98626359828603 73.1019411810811 71.35004671888325 C 0.0 **** -0.24
35352 H 42.89767654876367 73.10270279471771 71.40659337840772 H 0.0 **** 0.06
35353 H 44.338627882378546 74.10838055716602 71.12356256836146 H 0.0 **** 0.06
35354 H 44.30771302884173 72.4179977316572 70.56439508010182 H 0.0 **** 0.06
35355 H 44.39900430693578 72.7778829198979 72.30515885345503 H 0.0 **** 0.06
35356 C 29.656344330334775 92.17076887516623 87.12300819824554 C 0.0 **** -0.24
35357 H 29.537517144731424 92.95506356361449 87.87116182420672 H 0.0 **** 0.06
35358 H 29.190240858680426 91.25317793117932 87.48325022941003 H 0.0 **** 0.06
35359 H 30.717508075709617 91.99524389941405 86.94592528453484 H 0.0 **** 0.06
35360 H 29.178416383004702 92.47955291179102 86.19346360812852 H 0.0 **** 0.06
35361 C 44.342343124665 59.269073060749704 82.3549286564745 C 0.0 **** -0.24
35362 H 44.9154540612906 59.85306294366241 81.6351067954682 H 0.0 **** 0.06
35363 H 44.663368471526866 58.22770129548955 82.31584562991816 H 0.0 **** 0.06
35364 H 43.28127125608839 59.33156854540853 82.11184697192314 H 0.0 **** 0.06
35365 H 44.50913414092708 59.66328650547317 83.35764068272722 H 0.0 **** 0.06
35366 C 93.95381410917389 37.32015300280568 60.63468617523074 C 0.0 **** -0.24
35367 H 94.17808758483369 37.228387837869946 61.697318951078955 H 0.0 **** 0.06
35368 H 92.97835186551237 36.87747360181851 60.42998813812153 H 0.0 **** 0.06
35369 H 94.71724021299389 36.801221381606695 60.056085829848996 H 0.0 **** 0.06
35370 H 93.93981266993387 38.37366435240128 60.35671923130786 H 0.0 **** 0.06
35371 C 45.94935636745523 91.3170164516163 24.658436376023417 C 0.0 **** -0.24
35372 H 46.804818976184066 90.69810555877615 24.929260859020246 H 0.0 **** 0.06
35373 H 45.478884272077664 90.91349145521608 23.761437222265556 H 0.0 **** 0.06
35374 H 46.2847669147738 92.33581256494062 24.465441331375757 H 0.0 **** 0.06
35375 H 45.23052479864715 91.32010823995785 25.47711972371843 H 0.0 **** 0.06
35376 C 7.187263505535469 93.4133799292095 94.19511013082646 C 0.0 **** -0.24
35377 H 7.738817276719669 92.72819572128122 94.83830439900834 H 0.0 **** 0.06
35378 H 7.364966045613892 94.4396074620173 94.51889369054942 H 0.0 **** 0.06
35379 H 6.121552767276166 93.1918702970562 94.2577759092533 H 0.0 **** 0.06
35380 H 7.5223379968860264 93.29435777359288 93.16455314831995 H 0.0 **** 0.06
35381 C 37.790642660932804 75.93521352319593 4.075281837392012 C 0.0 **** -0.24
35382 H 38.05412076193872 75.51813879053118 3.1026869160792643 H 0.0 **** 0.06
35383 H 37.32285267887946 76.91008270681637 3.9366114118490856 H 0.0 **** 0.06
35384 H 38.69189685776439 76.04682444310251 4.6779481876075835 H 0.0 **** 0.06
35385 H 37.09547126383637 75.2663795346667 4.581750630848674 H 0.0 **** 0.06
35386 C 42.71621241807168 71.02894559159688 54.5142144970533 C 0.0 **** -0.24
35387 H 42.091638138661494 70.15069018216565 54.348207532435026 H 0.0 **** 0.06
35388 H 43.44373326989077 71.11358436615978 53.706183796006485 H 0.0 **** 0.06
35389 H 43.24007077570437 70.92788875836237 55.46477633415009 H 0.0 **** 0.06
35390 H 42.09073955643028 71.92073161171498 54.535990654472585 H 0.0 **** 0.06
35391 C 9.89657280425935 98.24712269891852 61.70071540960615 C 0.0 **** -0.24
35392 H 9.405806274276557 98.99907272565366 61.08246363714335 H 0.0 **** 0.06
35393 H 10.456544885064716 98.74068701397458 62.49571632367645 H 0.0 **** 0.06
35394 H 10.578517434797831 97.6604176970528 61.08609229582021 H 0.0 **** 0.06
35395 H 9.144820901686458 97.59068440401494 62.138717344143856 H 0.0 **** 0.06
35396 C 36.077032921996306 38.41619874085781 24.043343749474232 C 0.0 **** -0.24
35397 H 35.780094908209094 39.09402673361387 23.243199462976065 H 0.0 **** 0.06
35398 H 35.20363930634852 38.15534377558191 24.64059672462426 H 0.0 **** 0.06
35399 H 36.81838699905995 38.904034470581564 24.676024779123537 H 0.0 **** 0.06
35400 H 36.50640329808351 37.511892796663204 23.61229190293149 H 0.0 **** 0.06
35401 C 50.81987514314284 70.19480800664851 20.92097240252903 C 0.0 **** -0.24
35402 H 50.53540544700215 70.82570521730679 21.763788885471413 H 0.0 **** 0.06
35403 H 50.45124035922419 69.18279783983735 21.083768610115698 H 0.0 **** 0.06
35404 H 51.90696603809997 70.17650773781247 20.83272594027622 H 0.0 **** 0.06
35405 H 50.38711254533945 70.59643397433962 20.004873627536156 H 0.0 **** 0.06
35406 C 98.12834483619436 49.50638025238848 106.54135768010876 C 0.0 **** -0.24
35407 H 97.82291543616198 48.817851728909204 107.32913823969801 H 0.0 **** 0.06
35408 H 98.40799006159145 50.46333482657715 106.98269472349074 H 0.0 **** 0.06
35409 H 97.30082594989331 49.654448020165745 105.84632863377297 H 0.0 **** 0.06
35410 H 98.98144235863461 49.08988473907303 106.00629045059613 H 0.0 **** 0.06
35411 C 16.342425041681295 21.775496585522617 60.51218162558115 C 0.0 **** -0.24
35412 H 16.00867203403965 22.786783035015702 60.28328769797531 H 0.0 **** 0.06
35413 H 15.653910513763847 21.318240256154922 61.22283502947852 H 0.0 **** 0.06
35414 H 17.341555500084667 21.811969832165545 60.94693203368166 H 0.0 **** 0.06
35415 H 16.36582422046854 21.184623915087485 59.596563350455256 H 0.0 **** 0.06
35416 C 67.29444390026634 51.596920149014295 27.443048345854407 C 0.0 **** -0.24
35417 H 66.71046235326878 51.186505101977104 28.266281520566253 H 0.0 **** 0.06
35418 H 66.64275729553475 52.17723149334847 26.78867593404007 H 0.0 **** 0.06
35419 H 67.74647913062984 50.78314207951087 26.876760234253624 H 0.0 **** 0.06
35420 H 68.07858647649738 52.242256634625164 27.83968562527724 H 0.0 **** 0.06
35421 C 96.82937917452489 0.13151698467464712 98.80727951705647 C 0.0 **** -0.24
35422 H 95.8656570247361 0.08887771802767475 98.2995676041248 H 0.0 **** 0.06
35423 H 97.58863093329123 0.49599360110516955 98.11505596580098 H 0.0 **** 0.06
35424 H 97.10166477833081 -0.8651333115114426 99.1542270442085 H 0.0 **** 0.06
35425 H 96.76083741607846 0.8075416974073448 99.6602053827265 H 0.0 **** 0.06
35426 C 10.427384852536077 4.443282555857877 26.85879753679386 C 0.0 **** -0.24
35427 H 10.846460866773791 4.121195882371268 25.90518946026765 H 0.0 **** 0.06
35428 H 9.379366085938374 4.146323938542196 26.913241789289742 H 0.0 **** 0.06
35429 H 10.503978518358586 5.527447170379233 26.94051262163481 H 0.0 **** 0.06
35430 H 10.980473226361013 3.9775308960493447 27.674813183517344 H 0.0 **** 0.06
35431 C 7.04184927186958 40.26629202869091 63.15370149475564 C 0.0 **** -0.24
35432 H 7.990306717729169 39.765665714533526 62.963473880582086 H 0.0 **** 0.06
35433 H 6.969069307610198 40.51721527462598 64.21199232035053 H 0.0 **** 0.06
35434 H 6.220197116447366 39.604280853621106 62.879391763998825 H 0.0 **** 0.06
35435 H 6.986335152916411 41.17928780139761 62.559572013269644 H 0.0 **** 0.06
35436 C 107.22144168135591 85.64189624451045 35.270918885947864 C 0.0 **** -0.24
35437 H 106.48533970608898 86.32745362685053 35.689118303272934 H 0.0 **** 0.06
35438 H 108.14687369219413 85.70810239962503 35.84436921377677 H 0.0 **** 0.06
35439 H 107.41749502705551 85.90856398271814 34.232597527003875 H 0.0 **** 0.06
35440 H 106.83725499695927 84.62281677351638 35.31720597601168 H 0.0 **** 0.06
35441 C 34.907242452096455 38.85380634188439 20.169345983097912 C 0.0 **** -0.24
35442 H 34.90468575656885 39.06024146136298 19.099472240107815 H 0.0 **** 0.06
35443 H 33.922827887613295 38.49609239474455 20.4723123114737 H 0.0 **** 0.06
35444 H 35.14541480591413 39.76711405903231 20.714223757910958 H 0.0 **** 0.06
35445 H 35.65516704973807 38.09287733928889 20.391536658534733 H 0.0 **** 0.06
35446 C 102.33231243911966 18.226056339540243 82.96706879503512 C 0.0 **** -0.24
35447 H 103.0022372194944 18.145361057393394 83.82350148787691 H 0.0 **** 0.06
35448 H 102.80508275878759 17.781799405074985 82.09205006001736 H 0.0 **** 0.06
35449 H 102.11848516589555 19.276624671311765 82.77072233042406 H 0.0 **** 0.06
35450 H 101.40138870115868 17.701289991895525 83.18424888274575 H 0.0 **** 0.06
35451 C 106.41811973990227 53.603221182795096 105.62126782845239 C 0.0 **** -0.24
35452 H 106.25640285858077 52.5920526129143 105.994923610383 H 0.0 **** 0.06
35453 H 107.44950337935111 53.702987362716215 105.28076461625152 H 0.0 **** 0.06
35454 H 106.22777879767611 54.32028275727964 106.41971436929897 H 0.0 **** 0.06
35455 H 105.74076391441639 53.79616486943206 104.79007794403667 H 0.0 **** 0.06
35456 C 31.10245110193256 54.013505896255424 49.23365560638611 C 0.0 **** -0.24
35457 H 31.165553285796392 54.962101989259736 48.70054733781868 H 0.0 **** 0.06
35458 H 31.12750185535802 54.197985203318865 50.30790405830956 H 0.0 **** 0.06
35459 H 31.947037177196023 53.382472831069975 48.95398512748567 H 0.0 **** 0.06
35460 H 30.17166103124194 53.51103808505286 48.971175534051575 H 0.0 **** 0.06
35461 C 46.38960744905495 28.50090353690655 40.141061981032806 C 0.0 **** -0.24
35462 H 45.859500940636224 28.678494754247453 41.07685112396807 H 0.0 **** 0.06
35463 H 45.95426806561237 27.63953443745754 39.6354606460994 H 0.0 **** 0.06
35464 H 47.4419453604597 28.306358875256024 40.35169491720234 H 0.0 **** 0.06
35465 H 46.30382641141394 29.380264704247622 39.50301386661164 H 0.0 **** 0.06
35466 C 96.02253395176896 4.672690805737799 29.324740944601984 C 0.0 **** -0.24
35467 H 95.07141965018238 4.764510217291443 29.848555426106856 H 0.0 **** 0.06
35468 H 96.63427988314116 3.914697005920617 29.81294288025981 H 0.0 **** 0.06
35469 H 96.5422279929032 5.630982314955837 29.347640535113626 H 0.0 **** 0.06
35470 H 95.84051909012794 4.382786431943419 28.290325717402908 H 0.0 **** 0.06
35471 C 57.20359311879746 96.05511807755025 103.7024166550166 C 0.0 **** -0.24
35472 H 57.85157229826082 96.9075075927612 103.90831710961928 H 0.0 **** 0.06
35473 H 57.74806112052474 95.32074374594345 103.10830653896681 H 0.0 **** 0.06
35474 H 56.32545099757072 96.39131372112766 103.15041954893496 H 0.0 **** 0.06
35475 H 56.889761428204615 95.6022367536399 104.64253154445703 H 0.0 **** 0.06
35476 C 78.89414423587453 1.3490241971832404 103.94833792519385 C 0.0 **** -0.24
35477 H 78.41751055270251 0.7478212252400169 103.17385538889367 H 0.0 **** 0.06
35478 H 79.33170108317333 0.6917423862301177 104.70017934552853 H 0.0 **** 0.06
35479 H 78.15033248358958 1.992792168578518 104.41659392647534 H 0.0 **** 0.06
35480 H 79.67642871094131 1.962053885783206 103.50138553794491 H 0.0 **** 0.06
35481 C 1.005319057459758 88.48520646505709 39.55275186104126 C 0.0 **** -0.24
35482 H 1.967815730678467 88.99191474187874 39.47725499519916 H 0.0 **** 0.06
35483 H 1.159540998818244 87.46068510660461 39.89132598903416 H 0.0 **** 0.06
35484 H 0.5218565703194145 88.47693959971316 38.57604487894815 H 0.0 **** 0.06
35485 H 0.3728571643159171 89.01359833155554 40.26653816093696 H 0.0 **** 0.06
35486 C 26.37030219475136 70.17163225906165 21.632513785430106 C 0.0 **** -0.24
35487 H 26.33044548326376 70.57258495302654 22.64531990919718 H 0.0 **** 0.06
35488 H 27.373252709049382 69.79567506986066 21.43023100186727 H 0.0 **** 0.06
35489 H 26.1255749158301 70.95937420797821 20.919710120470008 H 0.0 **** 0.06
35490 H 25.651327716020887 69.35713647816661 21.5363875258869 H 0.0 **** 0.06
35491 C 39.810545960537794 40.64527789698553 3.8849449617741385 C 0.0 **** -0.24
35492 H 40.005893818915645 40.770628319135284 4.9508147666064986 H 0.0 **** 0.06
35493 H 40.563386842111285 39.986746306700184 3.4527568415923042 H 0.0 **** 0.06
35494 H 39.851630056728105 41.6174980474639 3.391936816556452 H 0.0 **** 0.06
35495 H 38.82090511829651 40.209068375647746 3.7459623590470414 H 0.0 **** 0.06
35496 C 8.134837230116688 69.14737723451896 77.17078204989204 C 0.0 **** -0.24
35497 H 9.159183570816097 69.01688395752501 77.5196931271401 H 0.0 **** 0.06
35498 H 8.144212497404851 69.56388858508564 76.1627451745331 H 0.0 **** 0.06
35499 H 7.606336930173029 69.8267321620499 77.84001833773873 H 0.0 **** 0.06
35500 H 7.628997936610901 68.18171285259484 77.15943329916576 H 0.0 **** 0.06
35501 C 6.556482725358762 11.826513349579244 104.21904324907706 C 0.0 **** -0.24
35502 H 6.3136089059159985 12.822763667116263 103.84995591875239 H 0.0 **** 0.06
35503 H 6.329142306864526 11.769046824201894 105.28389574368322 H 0.0 **** 0.06
35504 H 7.617192230496471 11.63100736207464 104.06315356235956 H 0.0 **** 0.06
35505 H 5.966941561842873 11.085336077573686 103.67999102483088 H 0.0 **** 0.06
35506 C 43.06896428324136 99.71336214232122 53.961689387098545 C 0.0 **** -0.24
35507 H 43.93278948276159 99.21155772942076 53.525969056060376 H 0.0 **** 0.06
35508 H 43.005918283737515 99.47221867929073 55.02289243277585 H 0.0 **** 0.06
35509 H 42.16171949660085 99.37687025754941 53.458627725110716 H 0.0 **** 0.06
35510 H 43.174678077396365 100.79073128669852 53.8388841419839 H 0.0 **** 0.06
35511 C 72.36835241962126 9.92214768841157 43.5731318896664 C 0.0 **** -0.24
35512 H 73.28235469790675 9.895559398429086 44.16659273199974 H 0.0 **** 0.06
35513 H 71.85406689695424 10.868460392317033 43.741499175506874 H 0.0 **** 0.06
35514 H 71.71958743387034 9.097921977152936 43.86920590685321 H 0.0 **** 0.06
35515 H 72.61833556415522 9.826470545914205 42.51667689423846 H 0.0 **** 0.06
35516 C 3.2591530611277904 46.30864304278827 58.246814266233 C 0.0 **** -0.24
35517 H 3.660412861754068 47.32183618768043 58.26946566580012 H 0.0 **** 0.06
35518 H 2.6091247820567958 46.194400280148386 57.37863700827319 H 0.0 **** 0.06
35519 H 2.6864450743863273 46.12421259512881 59.156547694555336 H 0.0 **** 0.06
35520 H 4.080629526313999 45.594123108195504 58.182606696303345 H 0.0 **** 0.06
35521 C 33.048862494569676 75.70772090675544 82.22742034542773 C 0.0 **** -0.24
35522 H 33.79978320504884 75.90066696583455 82.9939278763847 H 0.0 **** 0.06
35523 H 32.9901653961258 76.56269313044729 81.55424727330256 H 0.0 **** 0.06
35524 H 32.079173068898115 75.54940710622215 82.70084202883731 H 0.0 **** 0.06
35525 H 33.326952577789996 74.81792866735816 81.6628031941791 H 0.0 **** 0.06
35526 C 29.24652505046498 25.46526028365834 27.030216235925195 C 0.0 **** -0.24
35527 H 29.46576301756471 26.532747380718675 27.004861130331392 H 0.0 **** 0.06
35528 H 30.161340364448108 24.910943890917423 27.242374653169293 H 0.0 **** 0.06
35529 H 28.847897684827217 25.153800043945367 26.06471242646174 H 0.0 **** 0.06
35530 H 28.51111390808876 25.264500056122074 27.809964078170907 H 0.0 **** 0.06
35531 C 20.777108859821297 59.531188646740475 55.35884643146477 C 0.0 **** -0.24
35532 H 20.479239284504615 60.39108529401909 54.759610007052004 H 0.0 **** 0.06
35533 H 21.575405930875803 58.99198687786185 54.84788346653431 H 0.0 **** 0.06
35534 H 19.921166679298764 58.870162731397244 55.495987238341854 H 0.0 **** 0.06
35535 H 21.132887478501374 59.87202434511596 56.33061050443655 H 0.0 **** 0.06
35536 C 70.63201611522882 44.38007253232456 64.86814649459137 C 0.0 **** -0.24
35537 H 70.76488278907746 43.616208109442994 65.63492775608988 H 0.0 **** 0.06
35538 H 70.18423177462431 43.92979928884631 63.981393356766105 H 0.0 **** 0.06
35539 H 71.6013132036807 44.806519441966145 64.60971264456467 H 0.0 **** 0.06
35540 H 69.97821847925331 45.16510492272997 65.24816315526544 H 0.0 **** 0.06
35541 C 84.90868065199561 24.11858128068178 40.65363792703303 C 0.0 **** -0.24
35542 H 85.33260113145167 23.166703381789603 40.332882905493534 H 0.0 **** 0.06
35543 H 85.67064930795999 24.698438441061427 41.17563923386351 H 0.0 **** 0.06
35544 H 84.06939420225689 23.935142903620857 41.323382211392584 H 0.0 **** 0.06
35545 H 84.56310571660231 24.674315172499178 39.78171551702337 H 0.0 **** 0.06
35546 C 91.3728212076013 65.56428721153924 80.54703722893089 C 0.0 **** -0.24
35547 H 90.4751063565028 66.06998206899527 80.90449727525967 H 0.0 **** 0.06
35548 H 91.76874597487529 64.92664963480127 81.33856350732987 H 0.0 **** 0.06
35549 H 92.12025351432959 66.30583273102997 80.26840672548042 H 0.0 **** 0.06
35550 H 91.12408294711662 64.95319642154851 79.67936494619218 H 0.0 **** 0.06
35551 C 106.48956261522069 26.74002824111261 95.52030791466022 C 0.0 **** -0.24
35552 H 107.47361910961898 26.578148004515555 95.95867807867525 H 0.0 **** 0.06
35553 H 105.73480216117731 26.735494130139955 96.3075747246286 H 0.0 **** 0.06
35554 H 106.27492048178068 25.94461222875873 94.80644378338177 H 0.0 **** 0.06
35555 H 106.47408228016243 27.70220977211838 95.00744246292736 H 0.0 **** 0.06
35556 C 71.55253713430284 84.9233369268361 64.35830261994604 C 0.0 **** -0.24
35557 H 71.0045807383433 84.75609964968567 65.28462883436698 H 0.0 **** 0.06
35558 H 71.91665888546379 83.96958504440357 63.97417159578234 H 0.0 **** 0.06
35559 H 72.39706590548224 85.58479792005448 64.55082368016222 H 0.0 **** 0.06
35560 H 70.8907838148059 85.382106888605 63.62303561106131 H 0.0 **** 0.06
35561 C 1.5747444000402027 70.10715278634707 101.6039908129297 C 0.0 **** -0.24
35562 H 2.380717866506288 70.62242095262663 102.12717470684 H 0.0 **** 0.06
35563 H 0.6135650766379541 70.45464610447236 101.98525667623187 H 0.0 **** 0.06
35564 H 1.6639167905959766 69.03340851851397 101.7685793566326 H 0.0 **** 0.06
35565 H 1.6404546702691505 70.31797625356258 100.5373754152046 H 0.0 **** 0.06
35566 C 26.3947718188968 80.61828063527923 92.11536934051927 C 0.0 **** -0.24
35567 H 25.55816187799664 81.22702619915566 92.45962005270702 H 0.0 **** 0.06
35568 H 27.134435261133092 81.25792360460622 91.63418048803825 H 0.0 **** 0.06
35569 H 26.034943142886476 79.87642626787903 91.40226605443023 H 0.0 **** 0.06
35570 H 26.84919685874712 80.1133571677818 92.96710872517146 H 0.0 **** 0.06
35571 C 18.49325033154031 10.316085115285745 64.53079624094724 C 0.0 **** -0.24
35572 H 19.39565327233923 9.867180319522362 64.94449809649103 H 0.0 **** 0.06
35573 H 17.635203758735894 10.034688874350792 65.14161546043343 H 0.0 **** 0.06
35574 H 18.345777095552858 9.961465298925248 63.5111226407181 H 0.0 **** 0.06
35575 H 18.596443583648696 11.401676592238715 64.52830349040605 H 0.0 **** 0.06
35576 C 108.98814629374014 10.152259302984021 63.16876351657338 C 0.0 **** -0.24
35577 H 108.10822243252669 10.752753195642526 62.93427677301021 H 0.0 **** 0.06
35578 H 108.71773813782517 9.373849143014056 63.882022164936956 H 0.0 **** 0.06
35579 H 109.75773875114596 10.791519033057682 63.6014462088459 H 0.0 **** 0.06
35580 H 109.36763042895436 9.693402889970457 62.255509186781 H 0.0 **** 0.06
35581 C 96.55448436663265 109.16342935511881 67.03096614488783 C 0.0 **** -0.24
35582 H 96.92621609494654 108.95416128332222 66.02778955453431 H 0.0 **** 0.06
35583 H 95.80814200810813 108.41612819634378 67.30445112286304 H 0.0 **** 0.06
35584 H 96.1011135012745 110.15411895070135 67.05205678125344 H 0.0 **** 0.06
35585 H 97.38214132577417 109.12632780554458 67.73947959590782 H 0.0 **** 0.06
35586 C 61.14239648610632 108.9000793243653 40.64895257607958 C 0.0 **** -0.24
35587 H 60.85991821184295 107.8563986195123 40.513636508604236 H 0.0 **** 0.06
35588 H 60.27295894700849 109.47323833112988 40.97048012941434 H 0.0 **** 0.06
35589 H 61.51418650860013 109.30098473352561 39.70622468590261 H 0.0 **** 0.06
35590 H 61.92427232883975 108.96874087977584 41.40648192171284 H 0.0 **** 0.06
35591 C 90.93315553848734 65.51904542960955 33.24905145823294 C 0.0 **** -0.24
35592 H 91.2893338346176 65.92516729675287 34.195919414352744 H 0.0 **** 0.06
35593 H 90.24066894174933 66.22398016125334 32.788250811815885 H 0.0 **** 0.06
35594 H 90.42312173569488 64.57329937690903 33.43042057232833 H 0.0 **** 0.06
35595 H 91.78083205471702 65.35333814219672 32.583364944848 H 0.0 **** 0.06
35596 C 79.20909936781663 103.86950017497038 39.655133168677594 C 0.0 **** -0.24
35597 H 79.43774913561691 104.26442303305126 40.644486003474384 H 0.0 **** 0.06
35598 H 78.41895764449953 103.12324515589499 39.73594993387357 H 0.0 **** 0.06
35599 H 80.10227588916183 103.40983563486516 39.23117903221504 H 0.0 **** 0.06
35600 H 78.8763192109858 104.68216400435037 39.00877431114998 H 0.0 **** 0.06
35601 C 32.575962883963825 82.76865208244038 19.11824224046805 C 0.0 **** -0.24
35602 H 31.864649540864463 81.98270291194513 19.370870550435683 H 0.0 **** 0.06
35603 H 32.358857746690376 83.1478629422412 18.119724168455377 H 0.0 **** 0.06
35604 H 33.58747229031778 82.36402560804868 19.141650928745833 H 0.0 **** 0.06
35605 H 32.491765761164515 83.58002119834055 19.84160445493694 H 0.0 **** 0.06
35606 C 29.576387609298564 45.35951886670675 2.3395861798726845 C 0.0 **** -0.24
35607 H 29.062493162630176 44.77382431887193 1.5774055878897082 H 0.0 **** 0.06
35608 H 29.22288961080187 45.062096056147894 3.3270965467512603 H 0.0 **** 0.06
35609 H 29.371304894684044 46.41839393037409 2.1838122564653872 H 0.0 **** 0.06
35610 H 30.65023501033852 45.18347437841267 2.2698437579802526 H 0.0 **** 0.06
35611 C 11.359651719269753 85.6385388280346 62.22981608902137 C 0.0 **** -0.24
35612 H 11.116600642933516 86.63121116422374 61.85132744727946 H 0.0 **** 0.06
35613 H 10.751024405398967 85.42585921313669 63.108328470787285 H 0.0 **** 0.06
35614 H 12.415517096814423 85.60138717695479 62.49996415512851 H 0.0 **** 0.06
35615 H 11.15680756632715 84.89573718951306 61.45759598159208 H 0.0 **** 0.06
35616 C 101.13952038761738 105.17385140866878 65.15968860381793 C 0.0 **** -0.24
35617 H 101.61095880343862 104.4079203882776 65.77568484404588 H 0.0 **** 0.06
35618 H 100.0876664921658 104.92674732789817 65.0162284490059 H 0.0 **** 0.06
35619 H 101.63863687103981 105.21881024103499 64.19177213135566 H 0.0 **** 0.06
35620 H 101.22283224487592 106.14067985987919 65.65691067150505 H 0.0 **** 0.06
35621 C 26.969532155747075 95.9323111092657 14.647431912216916 C 0.0 **** -0.24
35622 H 26.33222050169573 95.15978983794369 15.077726700254544 H 0.0 **** 0.06
35623 H 26.628174026769187 96.9127189425971 14.98034029866676 H 0.0 **** 0.06
35624 H 26.920498909099734 95.8794243515602 13.559967623640745 H 0.0 **** 0.06
35625 H 27.999086195540897 95.77591542122951 14.972483954514303 H 0.0 **** 0.06
35626 C 2.4122461856805444 60.02706354612343 69.16850781921744 C 0.0 **** -0.24
35627 H 3.1374371391326292 59.295533311826944 68.81201593742867 H 0.0 **** 0.06
35628 H 1.8702385415899982 59.616021799745454 70.01993264707164 H 0.0 **** 0.06
35629 H 1.7110560868468099 60.26229854303165 68.36829424315096 H 0.0 **** 0.06
35630 H 2.933442948717186 60.93517217131392 69.47267974153459 H 0.0 **** 0.06
35631 C 90.78735238246401 96.2701507850885 13.57798057656251 C 0.0 **** -0.24
35632 H 90.97112495464307 96.4797092930467 12.524337029450791 H 0.0 **** 0.06
35633 H 91.6806965315779 96.50665230275472 14.156509880891406 H 0.0 **** 0.06
35634 H 90.54238724429212 95.21557988640006 13.702399785463967 H 0.0 **** 0.06
35635 H 89.95399390837173 96.88018486285422 13.929781734014 H 0.0 **** 0.06
35636 C 18.75316835502815 3.6118990276904235 68.93466598581469 C 0.0 **** -0.24
35637 H 18.716916475204073 3.0392833353993307 69.8615694035916 H 0.0 **** 0.06
35638 H 17.768725078607474 4.033737688744441 68.72965746759017 H 0.0 **** 0.06
35639 H 19.046094566058912 2.95712390502712 68.11458270592874 H 0.0 **** 0.06
35640 H 19.48084289711943 4.417755859892722 69.03423217537866 H 0.0 **** 0.06
35641 C 102.54426705758533 101.44435028436635 53.269813675955646 C 0.0 **** -0.24
35642 H 102.79147815537118 102.49365056403263 53.112195769838195 H 0.0 **** 0.06
35643 H 101.98615493097151 101.06963592820551 52.410997667578414 H 0.0 **** 0.06
35644 H 101.9375846560846 101.34504098444324 54.16989366594112 H 0.0 **** 0.06
35645 H 103.46277864370109 100.86898923655235 53.3858050415993 H 0.0 **** 0.06
35646 C 88.6355783099704 34.53298147567543 77.72447545465512 C 0.0 **** -0.24
35647 H 89.23191611801059 34.81393020171038 76.85601939457531 H 0.0 **** 0.06
35648 H 87.63017912510598 34.94202591703396 77.62099586934221 H 0.0 **** 0.06
35649 H 89.0991485431286 34.92986249115111 78.62683230775598 H 0.0 **** 0.06
35650 H 88.581251850912 33.44627640277133 77.79045719577132 H 0.0 **** 0.06
35651 C 81.55118880107989 79.1906117243212 65.40379432343121 C 0.0 **** -0.24
35652 H 80.79263026347265 79.93256121098922 65.65575628707694 H 0.0 **** 0.06
35653 H 81.97085716654249 79.4191799097411 64.42412809894984 H 0.0 **** 0.06
35654 H 81.09729003649277 78.20027250198842 65.3842251184297 H 0.0 **** 0.06
35655 H 82.34330187477593 79.2137605926279 66.15228138218771 H 0.0 **** 0.06
35656 C 43.60837233320953 62.808499358797974 1.4695926595166924 C 0.0 **** -0.24
35657 H 44.18183313059882 63.33328213437869 2.233581931226965 H 0.0 **** 0.06
35658 H 42.780738675782516 62.27517386944959 1.9383595173763837 H 0.0 **** 0.06
35659 H 44.25456262854482 62.09729442854001 0.9550457576430489 H 0.0 **** 0.06
35660 H 43.21670960076568 63.52891783414515 0.7520347541451144 H 0.0 **** 0.06
35661 C 103.4202377197802 26.61496009395475 33.880932135880016 C 0.0 **** -0.24
35662 H 103.47479077923948 25.527783414801377 33.819615544389535 H 0.0 **** 0.06
35663 H 103.68661866350256 27.046879116294292 32.91597667498405 H 0.0 **** 0.06
35664 H 104.11427498448347 26.970173589832427 34.64195937428008 H 0.0 **** 0.06
35665 H 102.40657576904553 26.913592392475493 34.14504003260811 H 0.0 **** 0.06
35666 C 5.8760586636556695 82.66377187849722 36.55245875537889 C 0.0 **** -0.24
35667 H 5.330921016903986 82.51292396145763 35.62079159002684 H 0.0 **** 0.06
35668 H 6.887201008677891 83.00450367057368 36.32911623481675 H 0.0 **** 0.06
35669 H 5.92183522250545 81.72374923016403 37.10312274869699 H 0.0 **** 0.06
35670 H 5.364142436923572 83.4134977125925 37.15590371828932 H 0.0 **** 0.06
35671 C 91.5540396535622 47.83051970721965 87.36984684012276 C 0.0 **** -0.24
35672 H 92.09864421087804 48.319452161555546 86.56131492515581 H 0.0 **** 0.06
35673 H 90.4943197049821 48.07811372709622 87.29538354710456 H 0.0 **** 0.06
35674 H 91.94058189314714 48.17414213483039 88.32854674780558 H 0.0 **** 0.06
35675 H 91.68020654238691 46.75050609783554 87.29186351363646 H 0.0 **** 0.06
35676 C 34.66210309319926 66.63430204185387 58.345425595291374 C 0.0 **** -0.24
35677 H 34.36450469893362 67.20464843342975 59.224671291742084 H 0.0 **** 0.06
35678 H 34.4382218631874 65.57886690295167 58.504129038060796 H 0.0 **** 0.06
35679 H 35.73204312643402 66.75763913645085 58.17686058010753 H 0.0 **** 0.06
35680 H 34.11310819734198 66.99442649052068 57.475783247840155 H 0.0 **** 0.06
35681 C 32.22456799808734 68.14418269920577 82.65274006820083 C 0.0 **** -0.24
35682 H 32.526046998966365 67.11436841165539 82.8464766162598 H 0.0 **** 0.06
35683 H 32.34467356411142 68.36375867047286 81.5915699876671 H 0.0 **** 0.06
35684 H 32.848416033613915 68.82068488326519 83.23715712891384 H 0.0 **** 0.06
35685 H 31.180284316968127 68.2752479185902 82.93649589802436 H 0.0 **** 0.06
35686 C 51.505501124831824 66.89849979725852 95.06724844205834 C 0.0 **** -0.24
35687 H 50.81443911977013 67.44800729436804 95.70615583796962 H 0.0 **** 0.06
35688 H 51.55412964387841 67.37749573002168 94.08914719691111 H 0.0 **** 0.06
35689 H 51.15504422965981 65.87219641013849 94.95241706517645 H 0.0 **** 0.06
35690 H 52.495669730765826 66.89508655626378 95.52162085028085 H 0.0 **** 0.06
35691 C 22.124816745683404 43.14494025163778 90.7217004464159 C 0.0 **** -0.24
35692 H 22.2889756175085 43.10846266095889 89.64513596982528 H 0.0 **** 0.06
35693 H 22.56939141688474 42.265744691286784 91.18714254846938 H 0.0 **** 0.06
35694 H 21.053720313225824 43.16294054005533 90.92531854819492 H 0.0 **** 0.06
35695 H 22.58631572044638 44.04479872578638 91.12851403043273 H 0.0 **** 0.06
35696 C 58.987171984754184 89.93607450475537 11.574329980210393 C 0.0 **** -0.24
35697 H 58.828334632483006 90.16956935271162 12.627756191146773 H 0.0 **** 0.06
35698 H 58.1184841031137 90.25504978472102 10.99668554438972 H 0.0 **** 0.06
35699 H 59.12731640863694 88.86194734951778 11.457860236043231 H 0.0 **** 0.06
35700 H 59.87357464293666 90.45940461289752 11.21613341653864 H 0.0 **** 0.06
35701 C 56.443521531175506 32.08492591410601 87.74013052215342 C 0.0 **** -0.24
35702 H 56.88985317696887 31.090708316516668 87.74973664552526 H 0.0 **** 0.06
35703 H 56.7282493103406 32.61919350423889 88.64628507504167 H 0.0 **** 0.06
35704 H 55.35733131894529 31.9951106141707 87.69718895466157 H 0.0 **** 0.06
35705 H 56.796851544197644 32.633031278658535 86.86735722988435 H 0.0 **** 0.06
35706 C 51.117133446213636 104.68114408773249 60.166313875008825 C 0.0 **** -0.24
35707 H 50.07445249774601 104.84907205629298 60.436886461767244 H 0.0 **** 0.06
35708 H 51.571403469082014 105.62615459086321 59.869566967636786 H 0.0 **** 0.06
35709 H 51.167338013135726 103.97648903330001 59.33579015166117 H 0.0 **** 0.06
35710 H 51.65334021995486 104.27202679096764 61.02245824687816 H 0.0 **** 0.06
35711 C 85.3194300082443 66.44690421335983 45.0498611450422 C 0.0 **** -0.24
35712 H 85.17197008377428 67.50326054412002 45.274217401578824 H 0.0 **** 0.06
35713 H 84.71160758839059 66.17126963572971 44.18676644544962 H 0.0 **** 0.06
35714 H 85.02066537376575 65.84794830699207 45.91030718767723 H 0.0 **** 0.06
35715 H 86.37026550257721 66.26520072444674 44.82732709279526 H 0.0 **** 0.06
35716 C 79.8664051970926 24.17205201021312 52.307674534150976 C 0.0 **** -0.24
35717 H 79.91130378781963 25.25976257855868 52.257468189791894 H 0.0 **** 0.06
35718 H 79.08718928255351 23.87274771299144 53.008093210433316 H 0.0 **** 0.06
35719 H 80.82793842460725 23.783583187305936 52.644792820379394 H 0.0 **** 0.06
35720 H 79.63970905693984 23.77212066079761 51.31902865642391 H 0.0 **** 0.06
35721 C 101.39266406653911 108.63700782666137 2.269248915577033 C 0.0 **** -0.24
35722 H 100.70429143924002 108.49461169878657 3.102423172564521 H 0.0 **** 0.06
35723 H 100.9672259398701 109.35163096694623 1.564641199381625 H 0.0 **** 0.06
35724 H 101.55621524686664 107.68375258055426 1.7675804377643907 H 0.0 **** 0.06
35725 H 102.34178241078773 109.0177219081072 2.6444954274076844 H 0.0 **** 0.06
35726 C 38.41851827557184 44.95852103160986 30.53255630487982 C 0.0 **** -0.24
35727 H 37.539178354869705 45.305451954373964 31.075770011147142 H 0.0 **** 0.06
35728 H 38.11961429630958 44.20558809618248 29.802037065701796 H 0.0 **** 0.06
35729 H 39.12993753737578 44.522890724397826 31.233494738894223 H 0.0 **** 0.06
35730 H 38.88293540667331 45.799701458832175 30.018923137914015 H 0.0 **** 0.06
35731 C 1.6679201984772023 79.27892214771818 10.997468806092485 C 0.0 **** -0.24
35732 H 0.9067340345347539 80.01574961014359 10.743624934691539 H 0.0 **** 0.06
35733 H 1.7587221799677684 78.55596744311154 10.187327265535927 H 0.0 **** 0.06
35734 H 1.3824553045599206 78.76367280359509 11.914645329523424 H 0.0 **** 0.06
35735 H 2.624217205537004 79.78151646927994 11.14609888287697 H 0.0 **** 0.06
35736 C 98.4012265769702 14.301891294827499 38.737621356169115 C 0.0 **** -0.24
35737 H 97.89746105309246 13.757476652626877 39.535827355816565 H 0.0 **** 0.06
35738 H 97.78764558936473 15.150242308716543 38.43360356515595 H 0.0 **** 0.06
35739 H 98.55360713281488 13.63899979890303 37.8856290348221 H 0.0 **** 0.06
35740 H 99.36700933150297 14.66109153189879 39.0959477799112 H 0.0 **** 0.06
35741 C 29.035113908521453 34.98478144757049 15.74755848615628 C 0.0 **** -0.24
35742 H 28.94159945044109 34.902598067733 14.664576577837579 H 0.0 **** 0.06
35743 H 28.163282062954465 35.50204026627741 16.1493015104229 H 0.0 **** 0.06
35744 H 29.935917434009696 35.5472385136582 15.992572582578148 H 0.0 **** 0.06
35745 H 29.099457536850593 33.98822290336011 16.183891852582207 H 0.0 **** 0.06
35746 C 99.89779627149353 65.70826341553166 44.96223596372771 C 0.0 **** -0.24
35747 H 100.68532487457104 65.24017949790056 45.552520632979416 H 0.0 **** 0.06
35748 H 98.94141063655823 65.58764604559366 45.472488748029434 H 0.0 **** 0.06
35749 H 99.84872530629484 65.23409144074876 43.9817478878814 H 0.0 **** 0.06
35750 H 100.1149181935052 66.76933318140155 44.84249938251737 H 0.0 **** 0.06
35751 C 23.41297295388415 84.37055728191412 41.709141670061854 C 0.0 **** -0.24
35752 H 23.729167610975765 83.33146022556632 41.616604554851506 H 0.0 **** 0.06
35753 H 23.641095081397722 84.73122154792154 42.71271105148679 H 0.0 **** 0.06
35754 H 22.339516898803026 84.44060303913881 41.53205814078831 H 0.0 **** 0.06
35755 H 23.943122170935496 84.97757821002007 40.974855422148096 H 0.0 **** 0.06
35756 C 106.36035972630006 79.55860861676894 41.00374175098279 C 0.0 **** -0.24
35757 H 107.07784449254986 79.21370544026576 40.258736847856795 H 0.0 **** 0.06
35758 H 106.51079292539518 80.62196914571075 41.18850395415204 H 0.0 **** 0.06
35759 H 106.50588357298804 79.00382951380425 41.93120920180328 H 0.0 **** 0.06
35760 H 105.34729419919404 79.39213590940955 40.636293816002805 H 0.0 **** 0.06
35761 C 95.27655514332461 7.643907670286453 93.83834809667854 C 0.0 **** -0.24
35762 H 96.15822769970062 7.671125941822339 93.199301579304 H 0.0 **** 0.06
35763 H 94.86663318768944 8.64989293852453 93.93518589393597 H 0.0 **** 0.06
35764 H 95.55228359151276 7.266792601783209 94.8226401571381 H 0.0 **** 0.06
35765 H 94.52641088982178 6.988240594655224 93.3940922681652 H 0.0 **** 0.06
35766 C 106.05232263109227 65.53756611113003 25.377090512371055 C 0.0 **** -0.24
35767 H 106.13275180022207 66.4014223070934 26.036012681482195 H 0.0 **** 0.06
35768 H 105.03856209670474 65.47910004218043 24.97751161618214 H 0.0 **** 0.06
35769 H 106.27462318865146 64.63068562195257 25.938263424684273 H 0.0 **** 0.06
35770 H 106.76132173753702 65.64058390230963 24.55498071597397 H 0.0 **** 0.06
35771 C 47.787130254999624 4.308593776978512 77.51276291399583 C 0.0 **** -0.24
35772 H 47.81234554089855 4.571847232167272 78.57042859624795 H 0.0 **** 0.06
35773 H 48.79728744401456 4.34246609905199 77.10550752865845 H 0.0 **** 0.06
35774 H 47.154927149025525 5.0169088661295405 76.97759115127542 H 0.0 **** 0.06
35775 H 47.38188773663859 3.302551516470089 77.39868225453455 H 0.0 **** 0.06
35776 C 19.96257591893638 78.95761921519856 93.49197987087821 C 0.0 **** -0.24
35777 H 20.416034202202297 78.56049407918628 92.58309971425837 H 0.0 **** 0.06
35778 H 20.735856558875014 79.11840208178577 94.24337510656864 H 0.0 **** 0.06
35779 H 19.22851448010364 78.24639833821875 93.87145788124539 H 0.0 **** 0.06
35780 H 19.47071604947429 79.90426469292184 93.26928714643343 H 0.0 **** 0.06
35781 C 74.29830173594706 108.16050633280076 98.41065448305835 C 0.0 **** -0.24
35782 H 74.02322768343635 107.89320798287497 97.39060022105667 H 0.0 **** 0.06
35783 H 75.3121335572173 108.56371262741203 98.41876028833184 H 0.0 **** 0.06
35784 H 74.25466488032589 107.27404317062576 99.0435729299333 H 0.0 **** 0.06
35785 H 73.6047369098149 108.91156769603356 98.78911655070016 H 0.0 **** 0.06
35786 C 11.728169189503575 45.35210862806371 42.517723900127834 C 0.0 **** -0.24
35787 H 11.015843458505202 45.265634174934384 43.337978778499746 H 0.0 **** 0.06
35788 H 11.57278938216129 44.5338387134096 41.814329029573 H 0.0 **** 0.06
35789 H 12.743964421944042 45.30428806583054 42.91218325581838 H 0.0 **** 0.06
35790 H 11.581514938661343 46.303382991010245 42.007533335550164 H 0.0 **** 0.06
35791 C 67.54267297065893 33.47100552583032 13.230479643478873 C 0.0 **** -0.24
35792 H 67.39026371224912 34.53447435117346 13.411891576315554 H 0.0 **** 0.06
35793 H 66.5760907691595 32.972117248114614 13.158353290259868 H 0.0 **** 0.06
35794 H 68.1137587178345 33.04040485023347 14.053576258415603 H 0.0 **** 0.06
35795 H 68.09275422006438 33.33747410324668 12.298354705634381 H 0.0 **** 0.06
35796 C 53.23355079899631 30.092764809450443 48.5790536222284 C 0.0 **** -0.24
35797 H 53.33301914716914 29.09534186210169 49.00553844315226 H 0.0 **** 0.06
35798 H 52.45150160951888 30.637962352755608 49.108226188708386 H 0.0 **** 0.06
35799 H 52.970353694058545 30.012568246747605 47.523893583942765 H 0.0 **** 0.06
35800 H 54.17950845741121 30.62608333796021 48.67815139030557 H 0.0 **** 0.06
35801 C 102.21292209311643 81.90946569654517 59.832010300796526 C 0.0 **** -0.24
35802 H 102.17841888390804 80.93314944008802 59.34959978082003 H 0.0 **** 0.06
35803 H 101.62843619371826 82.62268626664698 59.250593473104004 H 0.0 **** 0.06
35804 H 103.24724476160021 82.2482636844928 59.891039138048654 H 0.0 **** 0.06
35805 H 101.79751236430478 81.83206438494443 60.83713700616144 H 0.0 **** 0.06
35806 C 83.61735943779021 16.86642584127519 21.758125711292536 C 0.0 **** -0.24
35807 H 83.82026434568064 16.40333573205606 22.724172320105737 H 0.0 **** 0.06
35808 H 84.1060632594955 17.84027749407691 21.712557571164936 H 0.0 **** 0.06
35809 H 82.54232459401868 16.99384848500861 21.635731433941146 H 0.0 **** 0.06
35810 H 84.00199865763443 16.22837510637876 20.96216539904343 H 0.0 **** 0.06
35811 C 104.04660680269373 63.97717425487525 7.281756785792652 C 0.0 **** -0.24
35812 H 104.61060679828805 63.36739016983262 6.574463818452784 H 0.0 **** 0.06
35813 H 104.08348826954904 63.51488993772671 8.26838379258919 H 0.0 **** 0.06
35814 H 103.01015012581225 64.04992616304685 6.952016603025669 H 0.0 **** 0.06
35815 H 104.4833519731489 64.97395877225404 7.330368258602363 H 0.0 **** 0.06
35816 C 92.36449267524357 35.448758036338376 49.46458219635396 C 0.0 **** -0.24
35817 H 92.51157127048421 35.87002938037941 48.46992033308047 H 0.0 **** 0.06
35818 H 92.84006313195701 34.46892684396795 49.51635553735272 H 0.0 **** 0.06
35819 H 91.29716702966601 35.34494353275301 49.66005439861027 H 0.0 **** 0.06
35820 H 92.80859690702377 36.10933903082119 50.20833012253697 H 0.0 **** 0.06
35821 C 108.90966572217425 70.56850946261038 97.72714898686687 C 0.0 **** -0.24
35822 H 108.61565130217126 71.6033807004226 97.55176966025873 H 0.0 **** 0.06
35823 H 109.52823472059274 70.22060405648806 96.89877396700398 H 0.0 **** 0.06
35824 H 108.01832013238018 69.94555457298792 97.80125098628345 H 0.0 **** 0.06
35825 H 109.47633598615032 70.50430033443894 98.65582860997333 H 0.0 **** 0.06
35826 C 66.62740900009975 36.55731375400893 61.748472692986866 C 0.0 **** -0.24
35827 H 66.92076264212217 36.22156979286669 62.743446325212346 H 0.0 **** 0.06
35828 H 67.08889746629228 35.914652221582486 60.998237096572836 H 0.0 **** 0.06
35829 H 66.95658757325413 37.58486310939361 61.59992114486431 H 0.0 **** 0.06
35830 H 65.54291951576178 36.505700390396726 61.65392395698041 H 0.0 **** 0.06
35831 C 36.394204481194706 73.25970322008243 60.576547285558206 C 0.0 **** -0.24
35832 H 37.096678710220935 73.60440822454927 61.333923131584356 H 0.0 **** 0.06
35833 H 36.76346548080414 72.3338253703077 60.13293766181812 H 0.0 **** 0.06
35834 H 36.293224955102104 74.01946840014386 59.80199268208867 H 0.0 **** 0.06
35835 H 35.42207035948735 73.07935732586435 61.03717680345085 H 0.0 **** 0.06
35836 C 49.887965761338116 23.84964716877741 40.63137913830769 C 0.0 **** -0.24
35837 H 49.414537115990434 24.63183335397534 41.22548602509829 H 0.0 **** 0.06
35838 H 50.966873837197156 24.005123612590836 40.62014016787958 H 0.0 **** 0.06
35839 H 49.503371354474005 23.885272833193795 39.6126609430213 H 0.0 **** 0.06
35840 H 49.66526578478205 22.876767453432763 41.069583022085226 H 0.0 **** 0.06
35841 C 77.4404617139798 108.53995099548854 74.73657267526863 C 0.0 **** -0.24
35842 H 76.36154244270841 108.69139027402042 74.76211072629773 H 0.0 **** 0.06
35843 H 77.73593148868832 107.88849101665073 75.55950244860082 H 0.0 **** 0.06
35844 H 77.9446782888046 109.5014799257485 74.83450958468325 H 0.0 **** 0.06
35845 H 77.7199640439726 108.07953033592021 73.7893049762901 H 0.0 **** 0.06
35846 C 5.380929651310026 92.72992185515864 91.34337611685646 C 0.0 **** -0.24
35847 H 4.847377886365848 91.96377649564465 90.78002834606531 H 0.0 **** 0.06
35848 H 4.792231928812498 93.64666779309442 91.35678110952773 H 0.0 **** 0.06
35849 H 6.3447020963852765 92.92275390206555 90.87153571217499 H 0.0 **** 0.06
35850 H 5.53945283336509 92.38406636031436 92.36480170810574 H 0.0 **** 0.06
35851 C 62.36704918363125 78.54712719094874 82.79888912856075 C 0.0 **** -0.24
35852 H 62.92977236767638 78.57662057558855 81.86612034902015 H 0.0 **** 0.06
35853 H 62.947846177098086 78.02016793079366 83.55681836107357 H 0.0 **** 0.06
35854 H 61.421977096068474 78.02797973812929 82.63740672380212 H 0.0 **** 0.06
35855 H 62.1700463721196 79.56550975519963 83.13609497614868 H 0.0 **** 0.06
35856 C 78.05255034441527 42.075830638012505 60.749520701872086 C 0.0 **** -0.24
35857 H 77.1206203516079 41.65065555623693 61.12271572253091 H 0.0 **** 0.06
35858 H 78.13450103458808 43.1135241935056 61.07523546586556 H 0.0 **** 0.06
35859 H 78.06060274045348 42.03540309691256 59.66073027682924 H 0.0 **** 0.06
35860 H 78.89463007724123 41.504761861752485 61.14138429164579 H 0.0 **** 0.06
35861 C 39.7880927273639 25.479498992303505 76.36306525257869 C 0.0 **** -0.24
35862 H 40.021696210370635 25.418388515004835 77.42608820460813 H 0.0 **** 0.06
35863 H 40.509915360590014 26.130445823776228 75.86950655815485 H 0.0 **** 0.06
35864 H 38.78469014731235 25.88612532794923 76.2342701404378 H 0.0 **** 0.06
35865 H 39.83538969726942 24.48347219951404 75.92298630313806 H 0.0 **** 0.06
35866 C 42.5804535523219 4.176783928105655 98.45797536292248 C 0.0 **** -0.24
35867 H 42.58446424452774 3.754944039867116 99.46355078929051 H 0.0 **** 0.06
35868 H 43.54042837565078 3.9834169778692683 97.97939995795701 H 0.0 **** 0.06
35869 H 42.413239934585306 5.252733257180015 98.51761229961058 H 0.0 **** 0.06
35870 H 41.7830856683164 3.7167242874548343 97.87436809324042 H 0.0 **** 0.06
35871 C 6.029841873450209 27.178311820909528 53.199799274400306 C 0.0 **** -0.24
35872 H 6.992802677448225 26.67477115849283 53.11098381448517 H 0.0 **** 0.06
35873 H 5.296967924237109 26.67459033689883 52.5677356577489 H 0.0 **** 0.06
35874 H 6.1320050098787675 28.216654943947873 52.88141710184476 H 0.0 **** 0.06
35875 H 5.697938180038108 27.14785383992694 54.23694104197946 H 0.0 **** 0.06
35876 C 2.756375485084135 45.16309231889022 71.88223314856657 C 0.0 **** -0.24
35877 H 3.065952853460118 44.21386937795734 72.31932983750414 H 0.0 **** 0.06
35878 H 2.737811091560303 45.93077104049516 72.65636792333049 H 0.0 **** 0.06
35879 H 1.7616417800939814 45.05654283650023 71.45095613187368 H 0.0 **** 0.06
35880 H 3.4621865394767326 45.44994156564957 71.10199204210028 H 0.0 **** 0.06
35881 C 31.136613031255536 44.51839351410564 53.97971775934243 C 0.0 **** -0.24
35882 H 32.193160724675124 44.650343973027645 54.21106137329823 H 0.0 **** 0.06
35883 H 30.947424608451428 44.83497188979919 52.95370861411302 H 0.0 **** 0.06
35884 H 30.53708751103008 45.12108829871397 54.66244174771156 H 0.0 **** 0.06
35885 H 30.86900488359683 43.46847922756831 54.091174688568906 H 0.0 **** 0.06
35886 C 34.48451848569377 1.8710390330773237 67.55977647524566 C 0.0 **** -0.24
35887 H 35.14871621412058 2.7087236206603507 67.34625881669434 H 0.0 **** 0.06
35888 H 33.51512557035582 2.048200728485156 67.09291887341705 H 0.0 **** 0.06
35889 H 34.35689051087148 1.774949701726058 68.63877781268104 H 0.0 **** 0.06
35890 H 34.91719364504311 0.9538987723851733 67.16175418152325 H 0.0 **** 0.06
35891 C 101.25302473225608 79.0832034830857 53.273335599579525 C 0.0 **** -0.24
35892 H 101.50433043490682 79.39584281493444 54.28629013925877 H 0.0 **** 0.06
35893 H 101.57501136100262 78.05313674715757 53.12082006791144 H 0.0 **** 0.06
35894 H 101.75880081990495 79.73135304463221 52.557326115101034 H 0.0 **** 0.06
35895 H 100.17526922041996 79.15236170600912 53.12839415329887 H 0.0 **** 0.06
35896 C 14.08740996452326 100.3205879887744 17.689686443472837 C 0.0 **** -0.24
35897 H 14.555210284511986 99.37552747786094 17.411333391099078 H 0.0 **** 0.06
35898 H 13.988674488115578 100.95050232342257 16.804942887432816 H 0.0 **** 0.06
35899 H 14.705267099098592 100.82770121412838 18.430985045740613 H 0.0 **** 0.06
35900 H 13.100438870184405 100.1265545725119 18.109310016308314 H 0.0 **** 0.06
35901 C 25.432647574348753 102.01265140984282 7.330814113478198 C 0.0 **** -0.24
35902 H 26.29972448652995 102.47130534739196 6.855669872639737 H 0.0 **** 0.06
35903 H 24.52986741323353 102.5430068066915 7.027828971292706 H 0.0 **** 0.06
35904 H 25.541190025871988 102.06686114467774 8.414210957828914 H 0.0 **** 0.06
35905 H 25.36186217477121 100.96896607130867 7.023410081991841 H 0.0 **** 0.06
35906 C 16.216569642385963 103.9077701627137 94.67235407379127 C 0.0 **** -0.24
35907 H 15.574557273589932 103.53707012754697 95.47153332443358 H 0.0 **** 0.06
35908 H 15.890784952316324 103.4878034405929 93.72023212887024 H 0.0 **** 0.06
35909 H 17.24746815269461 103.61072655864704 94.86633666964312 H 0.0 **** 0.06
35910 H 16.153495172166302 104.99476083902678 94.63062036028305 H 0.0 **** 0.06
35911 C 104.80832196880328 9.25630837197869 57.65477785477417 C 0.0 **** -0.24
35912 H 104.65597286276437 8.210018763083255 57.92181291593555 H 0.0 **** 0.06
35913 H 104.10425326628402 9.878123865572917 58.20669502407298 H 0.0 **** 0.06
35914 H 104.64633971344392 9.384647967189991 56.5842515393755 H 0.0 **** 0.06
35915 H 105.8273119966803 9.549523334753474 57.90528957297992 H 0.0 **** 0.06
35916 C 55.12571012139284 32.89076031790401 11.715769416548468 C 0.0 **** -0.24
35917 H 56.21305601917501 32.82835927972948 11.701741281328808 H 0.0 **** 0.06
35918 H 54.705622959387256 32.0401533954211 11.17865814086656 H 0.0 **** 0.06
35919 H 54.80859135903199 33.81659310819579 11.236368570463242 H 0.0 **** 0.06
35920 H 54.77411342712176 32.87859572018941 12.747872461394635 H 0.0 **** 0.06
35921 C 61.64349062191047 81.79749165952227 90.63087795388232 C 0.0 **** -0.24
35922 H 62.55489326508291 81.59749703408393 91.1943965784779 H 0.0 **** 0.06
35923 H 60.872542442504255 82.16784076068465 91.30611811847186 H 0.0 **** 0.06
35924 H 61.30067309875437 80.87705532441383 90.15712589325899 H 0.0 **** 0.06
35925 H 61.84623304469085 82.54560365492902 89.86488331487013 H 0.0 **** 0.06
35926 C 105.84000811465216 4.404520645885441 101.22293212964246 C 0.0 **** -0.24
35927 H 105.7755413603503 3.8182420299063438 102.13894044197252 H 0.0 **** 0.06
35928 H 104.86708114147842 4.41655524532365 100.7305245841676 H 0.0 **** 0.06
35929 H 106.57886965480702 3.9578598009437655 100.55702626949 H 0.0 **** 0.06
35930 H 106.13788858680567 5.423984020525722 101.46453186369462 H 0.0 **** 0.06
35931 C 27.046315120066566 31.139015551347484 104.2092065014334 C 0.0 **** -0.24
35932 H 28.07067756031944 31.501824625848712 104.29381755305157 H 0.0 **** 0.06
35933 H 26.4077604975417 31.93688128099012 103.83060101533613 H 0.0 **** 0.06
35934 H 26.690885128686475 30.823462339493688 105.19088803298287 H 0.0 **** 0.06
35935 H 27.016054976996898 30.29189876033297 103.52375676410512 H 0.0 **** 0.06
35936 C 13.246737667570954 2.6007954741285317 87.7691850742028 C 0.0 **** -0.24
35937 H 13.241250100210692 1.5770853928679571 88.14377342249479 H 0.0 **** 0.06
35938 H 13.602601017982977 3.271951736646102 88.55062054308956 H 0.0 **** 0.06
35939 H 12.23613261843849 2.885317530657673 87.47690357017609 H 0.0 **** 0.06
35940 H 13.907293799741296 2.6669090942123006 86.90434088217336 H 0.0 **** 0.06
35941 C 21.201207604362978 76.12963748145863 100.2942427192628 C 0.0 **** -0.24
35942 H 22.173657171280595 76.57870365033409 100.491093369108 H 0.0 **** 0.06
35943 H 20.89824319503958 75.52906053483429 101.15213069476238 H 0.0 **** 0.06
35944 H 21.266612605252835 75.49467217613079 99.41091203834242 H 0.0 **** 0.06
35945 H 20.466121722687564 76.91665890427473 100.12364984940388 H 0.0 **** 0.06
35946 C 61.40552817800072 72.23330911053432 90.84845298160727 C 0.0 **** -0.24
35947 H 61.19158270466106 71.64179799038448 89.95819358214995 H 0.0 **** 0.06
35948 H 60.46850121171687 72.54967886198426 91.3066958296981 H 0.0 **** 0.06
35949 H 61.988487253337865 73.11066116343511 90.56829596533996 H 0.0 **** 0.06
35950 H 61.97203296663746 71.63028203188804 91.55661922582003 H 0.0 **** 0.06
35951 C 20.292278440406392 28.351479837056566 55.93137364853027 C 0.0 **** -0.24
35952 H 20.27724454231017 27.784967701521495 56.86227956641886 H 0.0 **** 0.06
35953 H 20.22128075882793 27.663997135238887 55.087209662434475 H 0.0 **** 0.06
35954 H 21.22267034342113 28.91517129532275 55.86386289599511 H 0.0 **** 0.06
35955 H 19.447246578850326 29.039399687192336 55.91077563989887 H 0.0 **** 0.06
35956 C 92.6830202585345 20.977499295071908 87.80657429352699 C 0.0 **** -0.24
35957 H 92.37476437325404 20.660628100589975 86.81086311172952 H 0.0 **** 0.06
35958 H 91.79975092962684 21.192536085853618 88.40901466058438 H 0.0 **** 0.06
35959 H 93.29700937458318 21.87535168568104 87.72883520413832 H 0.0 **** 0.06
35960 H 93.26059805512125 20.182811802876273 88.27806184203175 H 0.0 **** 0.06
35961 C 73.55505472432327 21.380030450321037 50.2109544489032 C 0.0 **** -0.24
35962 H 73.19870618444747 20.722140932298228 49.418062916451646 H 0.0 **** 0.06
35963 H 74.16328264717777 20.80730842596836 50.911517202404234 H 0.0 **** 0.06
35964 H 72.70321835083439 21.810958036800987 50.73486279723815 H 0.0 **** 0.06
35965 H 74.15728257119366 22.178720314461415 49.776572079735836 H 0.0 **** 0.06
35966 C 62.1880650811014 99.99955503146033 28.249711809527184 C 0.0 **** -0.24
35967 H 62.6781989920801 99.75611221954965 29.19273738933633 H 0.0 **** 0.06
35968 H 62.94109697907686 100.11803987225443 27.470576282989896 H 0.0 **** 0.06
35969 H 61.629559300498215 100.92829150617223 28.360493802804882 H 0.0 **** 0.06
35970 H 61.505917407591596 99.19433143942122 27.97630478788048 H 0.0 **** 0.06
35971 C 13.340623289376069 72.36242432855862 102.32045801908068 C 0.0 **** -0.24
35972 H 13.00720761052635 71.7779167391757 103.1777028532095 H 0.0 **** 0.06
35973 H 14.384953802116996 72.64406769345733 102.45591896632153 H 0.0 **** 0.06
35974 H 12.729916614599162 73.26113196578434 102.23338443341036 H 0.0 **** 0.06
35975 H 13.239436487036357 71.76617134951846 101.41389061646467 H 0.0 **** 0.06
35976 C 24.645157376656982 15.383785208805335 23.952258365737062 C 0.0 **** -0.24
35977 H 25.395289341754278 15.102696479484408 24.69101136432715 H 0.0 **** 0.06
35978 H 23.656442553595014 15.093204824420098 24.308794411893608 H 0.0 **** 0.06
35979 H 24.855591355219985 14.876719679681202 23.009933572387006 H 0.0 **** 0.06
35980 H 24.674012098525395 16.462798439751126 23.79864278906039 H 0.0 **** 0.06
35981 C 4.080731593946538 37.25394347746234 102.58179330810901 C 0.0 **** -0.24
35982 H 3.12729077506485 37.41745919793004 102.08080726883078 H 0.0 **** 0.06
35983 H 4.853411192506712 37.85082099830039 102.09651672668943 H 0.0 **** 0.06
35984 H 4.345721634356778 36.19853708048685 102.52234201740264 H 0.0 **** 0.06
35985 H 3.9965027738578414 37.54895663313216 103.62750721951349 H 0.0 **** 0.06
35986 C 47.910075571866685 105.00181738893224 6.787694468705752 C 0.0 **** -0.24
35987 H 47.98499267429943 104.912951608176 7.870658030319063 H 0.0 **** 0.06
35988 H 46.89303338398573 105.28629416171083 6.51628507336558 H 0.0 **** 0.06
35989 H 48.155335388054915 104.04542831313631 6.326349261450616 H 0.0 **** 0.06
35990 H 48.6061136344247 105.76362653646657 6.436982781445053 H 0.0 **** 0.06
35991 C 41.61917826072158 54.08852547223239 51.87614150991116 C 0.0 **** -0.24
35992 H 40.715761979224396 53.483866320175366 51.94288057349871 H 0.0 **** 0.06
35993 H 42.02705674759375 54.02323360638246 50.86742352286886 H 0.0 **** 0.06
35994 H 42.35621220347531 53.72165365487899 52.59027236980174 H 0.0 **** 0.06
35995 H 41.37778263176068 55.12704978731375 52.104297811947376 H 0.0 **** 0.06
35996 C 40.369862032693135 95.19533335231445 8.131333296213683 C 0.0 **** -0.24
35997 H 40.27822471143381 96.28004060925647 8.074231294295316 H 0.0 **** 0.06
35998 H 41.16718096883551 94.86297617587441 7.465668107512585 H 0.0 **** 0.06
35999 H 39.428922857802036 94.73571015290956 7.831065446498471 H 0.0 **** 0.06
36000 H 40.60544058491752 94.90546622136532 9.155216416148718 H 0.0 **** 0.06
36001 C 107.92187375690429 29.796762644791556 103.83160034192932 C 0.0 **** -0.24
36002 H 108.87224064005858 30.32461912846327 103.73982730735503 H 0.0 **** 0.06
36003 H 107.11109656861413 30.450941948671243 103.51137129814089 H 0.0 **** 0.06
36004 H 107.76734021013976 29.50652819266162 104.86994330954718 H 0.0 **** 0.06
36005 H 107.94092864287319 28.906039087461693 103.20354514997385 H 0.0 **** 0.06
36006 C 7.6140582045368035 64.3738464012691 70.32448393219033 C 0.0 **** -0.24
36007 H 6.99239037191316 63.68687757059982 69.75084400762066 H 0.0 **** 0.06
36008 H 7.574755790608606 65.36402300073318 69.87068389157673 H 0.0 **** 0.06
36009 H 8.643978130697022 64.0155688618481 70.32623414365878 H 0.0 **** 0.06
36010 H 7.246266699101881 64.42771081244302 71.34868842872021 H 0.0 **** 0.06
36011 C 93.79311020294188 1.5570987706932442 6.472306924997893 C 0.0 **** -0.24
36012 H 92.82577877418595 1.567417412804616 5.96875120769792 H 0.0 **** 0.06
36013 H 93.66233996097242 1.850028103511022 7.513614453966314 H 0.0 **** 0.06
36014 H 94.46648689399046 2.256809994419882 5.97858247357148 H 0.0 **** 0.06
36015 H 94.21450665828704 0.5525647735512393 6.427615012913625 H 0.0 **** 0.06
36016 C 89.4645935688772 46.763723092698555 64.43552850747292 C 0.0 **** -0.24
36017 H 90.20402063085805 46.14345541645107 63.929797896573476 H 0.0 **** 0.06
36018 H 88.68305002753371 47.044296212758674 63.72882749360886 H 0.0 **** 0.06
36019 H 89.9466846075797 47.66235015168869 64.82037458050513 H 0.0 **** 0.06
36020 H 89.02495579380223 46.20426898479468 65.2612128220644 H 0.0 **** 0.06
36021 C 44.91717690511081 45.7210529434883 98.45306802476534 C 0.0 **** -0.24
36022 H 44.12440014001635 45.27767092584327 99.05501504636652 H 0.0 **** 0.06
36023 H 45.57851076269884 44.935449553238584 98.08654415973552 H 0.0 **** 0.06
36024 H 45.486938868771915 46.42230161697023 99.06280523765338 H 0.0 **** 0.06
36025 H 44.47760529512422 46.25029225777854 97.60749104902254 H 0.0 **** 0.06
36026 C 94.83539711833012 14.927021875323703 101.0875541853236 C 0.0 **** -0.24
36027 H 94.85767602672465 15.928044227803937 100.65742776661041 H 0.0 **** 0.06
36028 H 94.92687885590638 14.995461654820673 102.17165748437642 H 0.0 **** 0.06
36029 H 95.66349780215208 14.341475684587834 100.68867605820796 H 0.0 **** 0.06
36030 H 93.89214745926638 14.443371176198596 100.83250326041832 H 0.0 **** 0.06
36031 C 30.523927762297546 68.55275938730051 5.031073400241866 C 0.0 **** -0.24
36032 H 29.930990010160826 68.3364703710771 4.141990849167087 H 0.0 **** 0.06
36033 H 31.09262758866828 69.46915000349668 4.873096782942071 H 0.0 **** 0.06
36034 H 31.21036327549166 67.72692821539562 5.219129369386195 H 0.0 **** 0.06
36035 H 29.86186430657139 68.67765206031498 5.887198743533133 H 0.0 **** 0.06
36036 C 63.846840547436045 55.76963116150263 93.17668647521452 C 0.0 **** -0.24
36037 H 64.32794552493863 56.24893549640218 94.02909201426829 H 0.0 **** 0.06
36038 H 63.918011042364526 54.686471421135906 93.27978177954284 H 0.0 **** 0.06
36039 H 64.34287948944348 56.08149454373752 92.25705040110417 H 0.0 **** 0.06
36040 H 62.79685023369626 56.06310205277807 93.14075418872815 H 0.0 **** 0.06
36041 C 73.47618024638993 95.00588740923989 81.86906861660948 C 0.0 **** -0.24
36042 H 72.94238011445509 94.09674018889785 82.14700682170292 H 0.0 **** 0.06
36043 H 72.83144569146219 95.86888712590464 82.0326799313726 H 0.0 **** 0.06
36044 H 73.75599208862104 94.9550338734855 80.81686943903286 H 0.0 **** 0.06
36045 H 74.37356683099205 95.10041058314104 82.47999211354714 H 0.0 **** 0.06
36046 C 90.39792727017229 35.90816788247034 58.813287319204115 C 0.0 **** -0.24
36047 H 90.32953827938697 36.92442993910103 58.425731878216126 H 0.0 **** 0.06
36048 H 89.82063485783412 35.83043445866144 59.73467695285743 H 0.0 **** 0.06
36049 H 91.44159036164055 35.666680695770054 59.0161054207179 H 0.0 **** 0.06
36050 H 90.00076574013897 35.21151444460244 58.07515957981142 H 0.0 **** 0.06
36051 C 9.823511414966221 69.79886732644503 35.94663973856407 C 0.0 **** -0.24
36052 H 10.489292320902377 69.43027697889313 36.72656394625844 H 0.0 **** 0.06
36053 H 9.362989529209136 70.73198527139924 36.27300520303203 H 0.0 **** 0.06
36054 H 9.046848893512825 69.05927201912652 35.752335941828505 H 0.0 **** 0.06
36055 H 10.393933325111545 69.97495308484974 35.03466632202674 H 0.0 **** 0.06
36056 C 15.965190596540253 37.536260487168846 6.889702828212009 C 0.0 **** -0.24
36057 H 15.863474666711227 38.48135134834581 7.422927907932575 H 0.0 **** 0.06
36058 H 15.95515490081874 37.722632637124065 5.815158441898959 H 0.0 **** 0.06
36059 H 15.135002930477697 36.879956631371584 7.15231773918498 H 0.0 **** 0.06
36060 H 16.90542094371432 37.061871670128994 7.167709881733572 H 0.0 **** 0.06
36061 C 15.452856300928005 26.078215843577766 24.514996098904078 C 0.0 **** -0.24
36062 H 16.20613437421315 25.81843889565988 25.25724392346305 H 0.0 **** 0.06
36063 H 15.571246290528066 27.122816555305633 24.227058558169205 H 0.0 **** 0.06
36064 H 14.45940598111801 25.927930525260592 24.93790349094388 H 0.0 **** 0.06
36065 H 15.572810030575923 25.442477333726004 23.63731304011654 H 0.0 **** 0.06
36066 C 0.9101876808977636 1.4905262224666735 9.25921333001554 C 0.0 **** -0.24
36067 H 0.7123008096412491 1.3410179647839247 8.197896732290015 H 0.0 **** 0.06
36068 H 1.0070289208201189 0.5218720759302613 9.750358747523187 H 0.0 **** 0.06
36069 H 0.0864249613720176 2.0452611695207867 9.708108607237833 H 0.0 **** 0.06
36070 H 1.8362517655273791 2.0541836159903717 9.379880660038667 H 0.0 **** 0.06
36071 C 27.822841193416487 4.607015461067789 100.0015196726198 C 0.0 **** -0.24
36072 H 27.181549844453322 5.027777391583001 99.22730416825162 H 0.0 **** 0.06
36073 H 27.595607908116335 3.5488325720969414 100.12647492957564 H 0.0 **** 0.06
36074 H 27.64737805597101 5.130823437754316 100.94219966620302 H 0.0 **** 0.06
36075 H 28.866827275849978 4.722859303089393 99.71025324772164 H 0.0 **** 0.06
36076 C 109.60272222789422 99.54622958064132 18.363256291063635 C 0.0 **** -0.24
36077 H 110.1748247904826 100.30245949313121 17.82625087788759 H 0.0 **** 0.06
36078 H 108.82235121105873 100.03057041326213 18.950670048907256 H 0.0 **** 0.06
36079 H 110.26681994240448 98.99189419555555 19.026114759786964 H 0.0 **** 0.06
36080 H 109.14730911552545 98.86086748070144 17.647973420757552 H 0.0 **** 0.06
36081 C 36.409251834451936 6.742268423812504 55.11693852825572 C 0.0 **** -0.24
36082 H 36.0371110770792 6.871834404926005 54.100913552762776 H 0.0 **** 0.06
36083 H 36.33603400339001 5.691300641318634 55.39891511812362 H 0.0 **** 0.06
36084 H 35.81201579679703 7.344307766548127 55.80238557356758 H 0.0 **** 0.06
36085 H 37.450462456156345 7.06022856201443 55.165883710716194 H 0.0 **** 0.06
36086 C 87.12809868927054 76.56230746429596 56.79871929733723 C 0.0 **** -0.24
36087 H 86.07158944426625 76.7345898310065 57.00576252287858 H 0.0 **** 0.06
36088 H 87.29308698483499 75.49950711844413 56.61947591607976 H 0.0 **** 0.06
36089 H 87.72294169057065 76.88336206005772 57.65453801352842 H 0.0 **** 0.06
36090 H 87.42313397990911 77.13029590496426 55.917770346363504 H 0.0 **** 0.06
36091 C 63.13125373780471 16.917958580788024 4.863816052477503 C 0.0 **** -0.24
36092 H 63.43180570374034 17.040498186115826 5.903816228930097 H 0.0 **** 0.06
36093 H 62.72659345552695 17.858478813381907 4.489286165750684 H 0.0 **** 0.06
36094 H 62.369196304269764 16.141490103197725 4.795011635240542 H 0.0 **** 0.06
36095 H 63.99716810576636 16.630677215006926 4.266471394928132 H 0.0 **** 0.06
36096 C 82.57697448648328 39.59420721348033 33.86403508521852 C 0.0 **** -0.24
36097 H 83.27715042758173 39.730722651169 34.68842156594263 H 0.0 **** 0.06
36098 H 82.03031604265641 38.661398251869855 34.00237831952825 H 0.0 **** 0.06
36099 H 83.1266327596072 39.55812360522333 32.923508841543764 H 0.0 **** 0.06
36100 H 81.8752872574257 40.42820455859555 33.8429083923906 H 0.0 **** 0.06
36101 C 1.6135464456616493 99.09527913574829 50.85911416542967 C 0.0 **** -0.24
36102 H 1.9357674598865247 98.20346025113002 50.32167528176677 H 0.0 **** 0.06
36103 H 2.4382750525150785 99.80608624957708 50.90847835617484 H 0.0 **** 0.06
36104 H 1.3095605545844258 98.82020128403559 51.86951292848062 H 0.0 **** 0.06
36105 H 0.7716820152529351 99.54920791943891 50.33714025713613 H 0.0 **** 0.06
36106 C 36.32715130609091 42.38820214611053 6.544875068038046 C 0.0 **** -0.24
36107 H 36.20699417281594 41.79220613236129 7.449547316522372 H 0.0 **** 0.06
36108 H 36.832737580827654 41.793297178641126 5.784049545464207 H 0.0 **** 0.06
36109 H 36.92195110542036 43.27364156776201 6.768593819201076 H 0.0 **** 0.06
36110 H 35.34725824767389 42.69163759942501 6.176425100028922 H 0.0 **** 0.06
36111 C 38.138161566743825 10.60368581859683 25.299660935898032 C 0.0 **** -0.24
36112 H 37.16889145251616 10.791644567755668 24.837700089640094 H 0.0 **** 0.06
36113 H 38.370611002321354 11.409141643679675 25.996381857422165 H 0.0 **** 0.06
36114 H 38.90524139945306 10.557816763301105 24.526509959673717 H 0.0 **** 0.06
36115 H 38.10627502580291 9.655094681448986 25.836929989163536 H 0.0 **** 0.06
36116 C 78.43575077630757 99.92498765581172 79.44330275390473 C 0.0 **** -0.24
36117 H 79.14982293009682 99.25912884267467 78.95896831282494 H 0.0 **** 0.06
36118 H 77.76359963758742 99.34154348612594 80.07360004773301 H 0.0 **** 0.06
36119 H 77.85709841098335 100.45146844947959 78.68405095362343 H 0.0 **** 0.06
36120 H 78.97319083463806 100.6483571344549 80.05703696161521 H 0.0 **** 0.06
36121 C 62.873059929255106 95.82345778878704 12.972181881914931 C 0.0 **** -0.24
36122 H 63.15301532864642 96.86928917444311 13.097455730143658 H 0.0 **** 0.06
36123 H 63.039718342542415 95.28823659466593 13.907170184884606 H 0.0 **** 0.06
36124 H 63.48026746412984 95.37648935333948 12.184124040946202 H 0.0 **** 0.06
36125 H 61.8203023662235 95.76058376323635 12.698846598231505 H 0.0 **** 0.06
36126 C 9.923310081036675 2.331221021860884 5.815320000745778 C 0.0 **** -0.24
36127 H 10.407928673953393 2.6992537827689915 6.719070252953957 H 0.0 **** 0.06
36128 H 10.500500339446432 1.5033557569882845 5.4041663249613805 H 0.0 **** 0.06
36129 H 9.866159375199231 3.1351833342484383 5.081069844299908 H 0.0 **** 0.06
36130 H 8.916810564203416 1.988321013597897 6.057285335273647 H 0.0 **** 0.06
36131 C 19.215948263215875 29.49732293374788 80.58331369818623 C 0.0 **** -0.24
36132 H 18.36986259981974 29.727969747917967 81.22922071091799 H 0.0 **** 0.06
36133 H 20.06508564270343 29.185949306818998 81.19261911826972 H 0.0 **** 0.06
36134 H 19.486239302620724 30.382936985441717 80.00824903475734 H 0.0 **** 0.06
36135 H 18.943361278836555 28.69160716528222 79.9012313496293 H 0.0 **** 0.06
36136 C 100.2962024032854 23.107191004714885 58.88228197572482 C 0.0 **** -0.24
36137 H 100.32533681329633 22.017928291702834 58.84688683593998 H 0.0 **** 0.06
36138 H 100.66810293831068 23.510933161638423 57.9399894616366 H 0.0 **** 0.06
36139 H 100.92266659231832 23.459823722418676 59.701817006432975 H 0.0 **** 0.06
36140 H 99.26999048588075 23.4382507529291 59.04039708463253 H 0.0 **** 0.06
36141 C 86.03607259373234 23.916360448183354 5.772840747847454 C 0.0 **** -0.24
36142 H 86.84958365215851 23.5347425511942 6.389649787269789 H 0.0 **** 0.06
36143 H 86.0286152439894 25.005921676826688 5.815836412075356 H 0.0 **** 0.06
36144 H 85.08725326310929 23.53179151944073 6.1457877112638215 H 0.0 **** 0.06
36145 H 86.17911547514763 23.594007029330328 4.742059097650952 H 0.0 **** 0.06
36146 C 102.88791951294196 107.60546624381055 22.925130889617208 C 0.0 **** -0.24
36147 H 102.938995528699 108.69093689702459 22.83882576269525 H 0.0 **** 0.06
36148 H 101.89333994441508 107.31571287680487 23.265592897692244 H 0.0 **** 0.06
36149 H 103.6326302910653 107.26280292810247 23.643506537190092 H 0.0 **** 0.06
36150 H 103.08555860360016 107.1538638991433 21.95334802340335 H 0.0 **** 0.06
36151 C 43.57557296011707 51.81840970055437 95.44240544682047 C 0.0 **** -0.24
36152 H 43.90181191886424 51.49554489360932 94.45378857547331 H 0.0 **** 0.06
36153 H 43.448304161495116 52.901764349819 95.44605340708665 H 0.0 **** 0.06
36154 H 44.325963439015936 51.538324364468096 96.18238466719416 H 0.0 **** 0.06
36155 H 42.627362437144996 51.34014721813599 95.68709636617376 H 0.0 **** 0.06
36156 C 20.588313136285308 11.730511825770208 59.97354089544859 C 0.0 **** -0.24
36157 H 21.59732349503946 11.653636770323772 59.56910899875288 H 0.0 **** 0.06
36158 H 20.226893905941694 12.752001870689611 59.854818133134444 H 0.0 **** 0.06
36159 H 20.60140492129247 11.47015973952064 61.032621314570974 H 0.0 **** 0.06
36160 H 19.929264739852783 11.046542136159005 59.43911267589823 H 0.0 **** 0.06
36161 C 99.00014413206787 98.90867938036178 61.398315706022515 C 0.0 **** -0.24
36162 H 98.00850588460574 98.49619379956476 61.21158031050456 H 0.0 **** 0.06
36163 H 99.66856371155416 98.11310226714113 61.728618933302585 H 0.0 **** 0.06
36164 H 98.93550858342695 99.67396665256058 62.17207763475824 H 0.0 **** 0.06
36165 H 99.38813601896497 99.35214999442633 60.481691497918945 H 0.0 **** 0.06
36166 C 102.58921726071144 57.949787896092914 47.86487125758001 C 0.0 **** -0.24
36167 H 102.83605106373682 58.538523950663546 48.748630737371435 H 0.0 **** 0.06
36168 H 102.44808617974515 56.90755239089049 48.150976184772446 H 0.0 **** 0.06
36169 H 103.40238888400924 58.022804466063974 47.14287586788984 H 0.0 **** 0.06
36170 H 101.671893084598 58.33304528566845 47.41838052550922 H 0.0 **** 0.06
36171 C 72.06012739005503 43.63874221776242 73.67392306893792 C 0.0 **** -0.24
36172 H 71.90321728742492 43.53767220258207 72.60069249558549 H 0.0 **** 0.06
36173 H 72.54423850828655 44.59411008897988 73.88121179550605 H 0.0 **** 0.06
36174 H 72.69479544670259 42.82606128113456 74.02699955816773 H 0.0 **** 0.06
36175 H 71.09899894670751 43.59940568076976 74.18729004601352 H 0.0 **** 0.06
36176 C 105.47172935290368 90.77216164624949 58.2478921790748 C 0.0 **** -0.24
36177 H 105.80950751836261 90.35943050098754 57.29704634608345 H 0.0 **** 0.06
36178 H 106.19360372121002 90.52930896195755 59.027102542937534 H 0.0 **** 0.06
36179 H 104.5014568901818 90.3462606948127 58.503733144364 H 0.0 **** 0.06
36180 H 105.3813773877907 91.85558981671669 58.160640479882396 H 0.0 **** 0.06
36181 C 46.24473420306077 44.42860953372866 34.46695936434452 C 0.0 **** -0.24
36182 H 46.287549757761724 45.33987961733294 33.87030658995147 H 0.0 **** 0.06
36183 H 46.73278061542965 43.61801768696711 33.92612630031428 H 0.0 **** 0.06
36184 H 45.203575922949085 44.166150062901664 34.65384251314592 H 0.0 **** 0.06
36185 H 46.754258040430955 44.59200924988136 35.4166766190491 H 0.0 **** 0.06
36186 C 70.14825501351368 64.06266262150353 8.771043717035525 C 0.0 **** -0.24
36187 H 70.75086525715439 64.83910842352384 8.298978349429504 H 0.0 **** 0.06
36188 H 70.74463185586858 63.156217424184945 8.88124215780418 H 0.0 **** 0.06
36189 H 69.27732074809086 63.85142882574246 8.15137557663411 H 0.0 **** 0.06
36190 H 69.82171717402709 64.40431981167103 9.753303495047092 H 0.0 **** 0.06
36191 C 70.80241062423352 3.8612966772747956 66.75161958290954 C 0.0 **** -0.24
36192 H 71.21373642269168 2.8797595592441994 66.98952689963329 H 0.0 **** 0.06
36193 H 69.96519540245856 3.7469914186594195 66.06250139124865 H 0.0 **** 0.06
36194 H 71.57390909812989 4.476284836797875 66.28878320930437 H 0.0 **** 0.06
36195 H 70.45583550252707 4.340810085083689 67.66717321277605 H 0.0 **** 0.06
36196 C 56.94951358610303 85.03652092045468 89.62682504890637 C 0.0 **** -0.24
36197 H 57.06797627748408 85.32938482265399 90.66950435406082 H 0.0 **** 0.06
36198 H 57.79324015479299 85.41090249985803 89.04733668771354 H 0.0 **** 0.06
36199 H 56.023331790228404 85.45534406621573 89.23436705803019 H 0.0 **** 0.06
36200 H 56.91487762228515 83.94895739732544 89.55746489247065 H 0.0 **** 0.06
36201 C 20.43156629116109 1.864475944693936 18.172642838136213 C 0.0 **** -0.24
36202 H 19.95082163001618 1.3558230357450043 17.337006162430754 H 0.0 **** 0.06
36203 H 19.88203962377571 1.6552955882261244 19.089819934733327 H 0.0 **** 0.06
36204 H 20.43663171220885 2.938474165699006 17.98808661585373 H 0.0 **** 0.06
36205 H 21.456844747341904 1.5080192350945367 18.272510606530687 H 0.0 **** 0.06
36206 C 33.74409884056922 29.193885524805353 81.68805429008529 C 0.0 **** -0.24
36207 H 33.82024168775591 29.142959146088685 80.60135392021533 H 0.0 **** 0.06
36208 H 32.83816458956713 29.73389577874198 81.9632031924728 H 0.0 **** 0.06
36209 H 34.61484124595037 29.714837641750165 82.0878748559831 H 0.0 **** 0.06
36210 H 33.705303363009335 28.18406808698478 82.09673451241628 H 0.0 **** 0.06
36211 C 54.21604789831192 46.545393618277245 1.5901751918474218 C 0.0 **** -0.24
36212 H 54.54401473628897 45.59015135465472 1.1800059054034477 H 0.0 **** 0.06
36213 H 53.25117439507166 46.41786505557445 2.0818107212343335 H 0.0 **** 0.06
36214 H 54.1197214826888 47.27289740878885 0.78359204670096 H 0.0 **** 0.06
36215 H 54.94896728974294 46.900852789672314 2.3143621841677486 H 0.0 **** 0.06
36216 C 62.60923293576455 89.14528584208841 62.776940401574876 C 0.0 **** -0.24
36217 H 62.26822606655578 89.27937757746787 63.80275788482926 H 0.0 **** 0.06
36218 H 61.87837105904397 89.57723631760618 62.09232398821 H 0.0 **** 0.06
36219 H 62.71892551643694 88.08119063125471 62.566843277231 H 0.0 **** 0.06
36220 H 63.57054487004346 89.64284245293129 62.64441982222915 H 0.0 **** 0.06
36221 C 80.11877261979855 72.42247468418998 54.418078134208194 C 0.0 **** -0.24
36222 H 79.3446285868389 71.8319535069347 54.907895049464585 H 0.0 **** 0.06
36223 H 79.85998243856791 73.480199361693 54.477987010733465 H 0.0 **** 0.06
36224 H 80.19454739231954 72.12603777940245 53.37240315762387 H 0.0 **** 0.06
36225 H 81.0733835692759 72.2528330064834 54.91514095877068 H 0.0 **** 0.06
36226 C 106.16734420769816 93.06768495754092 38.60412483926984 C 0.0 **** -0.24
36227 H 106.71872680697034 93.1184201535143 37.665091801415656 H 0.0 **** 0.06
36228 H 106.63714373433146 93.72570548365282 39.33629786419485 H 0.0 **** 0.06
36229 H 106.17799982081672 92.04345318876204 38.976214318968374 H 0.0 **** 0.06
36230 H 105.1381208049077 93.38438990629547 38.43808574808065 H 0.0 **** 0.06
36231 C 29.38763861983773 107.18796164460389 1.673337601173671 C 0.0 **** -0.24
36232 H 29.289878210493185 107.6978954352139 0.7149121746658693 H 0.0 **** 0.06
36233 H 29.518630019113573 106.11938135684244 1.5034397653465703 H 0.0 **** 0.06
36234 H 28.48922539165312 107.35483780927606 2.267127845765117 H 0.0 **** 0.06
36235 H 30.25350846303394 107.58112979567136 2.206266390015685 H 0.0 **** 0.06
36236 C 66.24190390012173 101.50631148452395 15.266979423002038 C 0.0 **** -0.24
36237 H 66.14868927978185 100.4918758542412 14.879408469725377 H 0.0 **** 0.06
36238 H 65.38615550535856 101.73094845186785 15.903859156535674 H 0.0 **** 0.06
36239 H 66.27141967077037 102.21160320123806 14.436345156434673 H 0.0 **** 0.06
36240 H 67.160052293525 101.58973772523387 15.847923844781779 H 0.0 **** 0.06
36241 C 19.3670584470468 89.12274445601932 9.924366457248638 C 0.0 **** -0.24
36242 H 19.874992632784654 88.4221897618266 9.261432181221082 H 0.0 **** 0.06
36243 H 19.03919863817984 89.99113773545645 9.35150783271547 H 0.0 **** 0.06
36244 H 20.0535177682043 89.44189235394731 10.70845195739966 H 0.0 **** 0.06
36245 H 18.501952163671632 88.63530191156218 10.374136128887145 H 0.0 **** 0.06
36246 C 85.31771123671889 72.64317247391102 44.2363413941699 C 0.0 **** -0.24
36247 H 85.01899988058449 71.75674620934154 43.676732719755805 H 0.0 **** 0.06
36248 H 84.62444042986851 72.80248693762195 45.06261518937015 H 0.0 **** 0.06
36249 H 85.3032994834186 73.51072331549551 43.57715882017192 H 0.0 **** 0.06
36250 H 86.32501973717517 72.50235225966327 44.628994095620996 H 0.0 **** 0.06
36251 C 55.62369576218862 17.490113416478913 82.84729888194892 C 0.0 **** -0.24
36252 H 55.59260516408287 17.25342975216519 81.78315925561839 H 0.0 **** 0.06
36253 H 55.237685237057384 18.497015379278285 83.0059562846508 H 0.0 **** 0.06
36254 H 56.65337119060108 17.435474073490038 83.20048992180537 H 0.0 **** 0.06
36255 H 55.011826889730585 16.775556768034033 83.3962051141594 H 0.0 **** 0.06
36256 C 44.02537971212635 0.22293091456122927 80.59406304681673 C 0.0 **** -0.24
36257 H 44.85472180152399 0.5387742568790337 79.96117795020399 H 0.0 **** 0.06
36258 H 43.11877035959269 0.7487923958246858 80.29408627219658 H 0.0 **** 0.06
36259 H 44.25330863630879 0.4570360689317061 81.63447022677997 H 0.0 **** 0.06
36260 H 43.87527002133551 -0.8514006939045724 80.48839125077083 H 0.0 **** 0.06
36261 C 7.197997599299725 80.6683187471931 59.527880728676365 C 0.0 **** -0.24
36262 H 6.409818502148127 81.27166726945553 59.079558252119455 H 0.0 **** 0.06
36263 H 6.850320149815758 80.26268053904664 60.47805066379101 H 0.0 **** 0.06
36264 H 8.078123699574746 81.28850777426798 59.697525882864 H 0.0 **** 0.06
36265 H 7.455470393885719 79.84913416268785 58.85524239800637 H 0.0 **** 0.06
36266 C 23.28741969057529 74.31738133927621 77.37945797470333 C 0.0 **** -0.24
36267 H 23.304183732934263 73.71212259345248 78.28646058705192 H 0.0 **** 0.06
36268 H 22.69898841588119 73.81097752904702 76.61482234730776 H 0.0 **** 0.06
36269 H 24.30624744153397 74.45928109406441 77.01954921423786 H 0.0 **** 0.06
36270 H 22.84091407721752 75.28804437788892 77.59893905925297 H 0.0 **** 0.06
36271 C 107.57875914081887 76.16293657630318 22.44123661527309 C 0.0 **** -0.24
36272 H 107.57669048938558 76.56365567570025 21.428187393725402 H 0.0 **** 0.06
36273 H 107.25712572961487 75.1214695551062 22.420638633223458 H 0.0 **** 0.06
36274 H 106.89472744730008 76.7419694865144 23.061995356786237 H 0.0 **** 0.06
36275 H 108.58510345701842 76.22477038581695 22.853889614509654 H 0.0 **** 0.06
36276 C 39.42300535020974 86.5829469509074 0.03846839479791697 C 0.0 **** -0.24
36277 H 38.510384602652934 86.4194984266648 -0.536874058583777 H 0.0 **** 0.06
36278 H 39.95811373031988 85.63954003293958 0.1451232291137785 H 0.0 **** 0.06
36279 H 39.1644863283792 86.96890386677083 1.0247006468262612 H 0.0 **** 0.06
36280 H 40.05557779643359 87.30346543865788 -0.480451729810909 H 0.0 **** 0.06
36281 C 20.41474913858572 11.921859431380412 40.071597010744256 C 0.0 **** -0.24
36282 H 20.802165484346 10.926255956504264 40.290151827221564 H 0.0 **** 0.06
36283 H 21.193087757325216 12.661927123008752 40.25860419927602 H 0.0 **** 0.06
36284 H 19.55588520136395 12.126284530048082 40.710464723385684 H 0.0 **** 0.06
36285 H 20.109491147511182 11.970035789375558 39.02585444719432 H 0.0 **** 0.06
36286 C 3.9050067806848148 101.16245157110703 108.8622106256927 C 0.0 **** -0.24
36287 H 4.886408979979592 101.62619695221329 108.96531661308502 H 0.0 **** 0.06
36288 H 3.3753131326019172 101.219274534831 109.81330508330196 H 0.0 **** 0.06
36289 H 4.0256677515939145 100.11828082638375 108.57419459393878 H 0.0 **** 0.06
36290 H 3.3343338912685 101.68703955835356 108.09641383754824 H 0.0 **** 0.06
36291 C 0.5327781262405296 69.90490806283549 14.82286295321937 C 0.0 **** -0.24
36292 H 1.0998613715872807 69.0800404624959 14.391690263860767 H 0.0 **** 0.06
36293 H 1.2205309957628714 70.66324391102603 15.195595485820917 H 0.0 **** 0.06
36294 H -0.08020454274939937 69.53272457785442 15.644806169858043 H 0.0 **** 0.06
36295 H -0.11160308645568762 70.34095058891808 14.058676004292977 H 0.0 **** 0.06
36296 C 94.46716742238908 60.64813123851414 63.57694859452852 C 0.0 **** -0.24
36297 H 93.51502191088062 60.9370820217961 63.131223045661216 H 0.0 **** 0.06
36298 H 95.28388868404613 60.98047305841418 62.934821470411464 H 0.0 **** 0.06
36299 H 94.50544993254972 59.56407511659009 63.68343629963232 H 0.0 **** 0.06
36300 H 94.56353818408272 61.11320935554325 64.55809327855462 H 0.0 **** 0.06
36301 C 64.37114927763281 44.780015481023895 0.08938384534354782 C 0.0 **** -0.24
36302 H 64.04761448818977 45.69484817587783 0.5849907460691552 H 0.0 **** 0.06
36303 H 64.57795328203866 44.01451757164783 0.8380279352450177 H 0.0 **** 0.06
36304 H 65.27540647893511 44.97788444945537 -0.4871295569091929 H 0.0 **** 0.06
36305 H 63.58422972220751 44.43133080416609 -0.5799154199739407 H 0.0 **** 0.06
36306 C 87.12908935999177 100.99548136459296 40.34070995168682 C 0.0 **** -0.24
36307 H 86.84644561679141 100.02474137661207 39.93256134089147 H 0.0 **** 0.06
36308 H 88.12896500838481 101.25775497384359 39.99385963569252 H 0.0 **** 0.06
36309 H 87.12335206387016 100.94755431589124 41.42972737762688 H 0.0 **** 0.06
36310 H 86.41841850540298 101.7503983774447 40.00631491942996 H 0.0 **** 0.06
36311 C 108.27693794702245 63.897557702293966 39.557996873601155 C 0.0 **** -0.24
36312 H 108.07144966371158 64.52555152077721 38.69008773079409 H 0.0 **** 0.06
36313 H 109.34979551677998 63.88309717898011 39.749262075244474 H 0.0 **** 0.06
36314 H 107.92862340550718 62.88359000311675 39.36270651739841 H 0.0 **** 0.06
36315 H 107.75733300799342 64.29916628455197 40.42741741118124 H 0.0 **** 0.06
36316 C 85.51379123330905 93.75421061021024 98.44328004105208 C 0.0 **** -0.24
36317 H 85.4367898050763 94.76260524083965 98.85049489538005 H 0.0 **** 0.06
36318 H 84.7384560515793 93.60623259318461 97.69094183720611 H 0.0 **** 0.06
36319 H 85.38442624743858 93.0286426055335 99.24656370919917 H 0.0 **** 0.06
36320 H 86.49382019532781 93.6206120374189 97.98591969336974 H 0.0 **** 0.06
36321 C 9.07116242059375 55.160776650053606 40.40787800555091 C 0.0 **** -0.24
36322 H 8.32590683856271 55.64589077216709 41.03852948391585 H 0.0 **** 0.06
36323 H 8.613820689433068 54.31734211726075 39.88910958850602 H 0.0 **** 0.06
36324 H 9.893945271280773 54.80386638609406 41.02680956416566 H 0.0 **** 0.06
36325 H 9.448772226756901 55.87566115599759 39.67720447204971 H 0.0 **** 0.06
36326 C 94.63056440736692 1.0112253088375383 54.18726125720653 C 0.0 **** -0.24
36327 H 93.9379967443637 0.8717653301874293 53.35748189702735 H 0.0 **** 0.06
36328 H 94.10526927837034 0.8480775651556058 55.12875196180514 H 0.0 **** 0.06
36329 H 95.02637370616434 2.026550941072614 54.16256863210141 H 0.0 **** 0.06
36330 H 95.45048070314587 0.2989777419862065 54.09978274193828 H 0.0 **** 0.06
36331 C 87.45109226226595 84.55365882146508 14.624856054316552 C 0.0 **** -0.24
36332 H 87.03560606758094 85.40485228412547 14.085123905299497 H 0.0 **** 0.06
36333 H 88.13897195233307 84.91203696625703 15.391160521871512 H 0.0 **** 0.06
36334 H 87.98555937155771 83.90767573760247 13.928451991198983 H 0.0 **** 0.06
36335 H 86.64369253891601 83.99241013088394 15.095172391326855 H 0.0 **** 0.06
36336 C 89.57429773313154 21.784918790263628 6.9331098937101245 C 0.0 **** -0.24
36337 H 90.02574415718561 21.549704370141118 7.897326260916941 H 0.0 **** 0.06
36338 H 89.65496166439364 20.920762283328468 6.27380441228965 H 0.0 **** 0.06
36339 H 90.0948227864946 22.63274177238268 6.485923351453053 H 0.0 **** 0.06
36340 H 88.5238875343393 22.0384548632866 7.0756957655841575 H 0.0 **** 0.06
36341 C 105.84137258179024 48.67690373631439 86.86654751154946 C 0.0 **** -0.24
36342 H 105.11049439865647 48.69358012923692 87.67459937145863 H 0.0 **** 0.06
36343 H 105.69298054949942 47.78172614260458 86.26141462080022 H 0.0 **** 0.06
36344 H 106.84709641271647 48.67039492510639 87.28604845905177 H 0.0 **** 0.06
36345 H 105.71329286624393 49.562680947656304 86.24279813953287 H 0.0 **** 0.06
36346 C 107.55854949879148 63.316400587995176 3.7412992303596297 C 0.0 **** -0.24
36347 H 107.72137958627627 64.11979094368036 4.4596829429301295 H 0.0 **** 0.06
36348 H 106.55823333583054 62.905523200351126 3.876029275700134 H 0.0 **** 0.06
36349 H 108.29863294262681 62.532405790620274 3.9005364704125043 H 0.0 **** 0.06
36350 H 107.65713457328665 63.70859638603339 2.7286446262729385 H 0.0 **** 0.06
36351 C 94.46116706673621 49.035395665785536 43.97449448853615 C 0.0 **** -0.24
36352 H 93.85659755556016 49.25850582206553 44.852802725177895 H 0.0 **** 0.06
36353 H 94.29322422890654 49.79816282071882 43.21416933807677 H 0.0 **** 0.06
36354 H 94.18010514086097 48.05854158233787 43.57898186615466 H 0.0 **** 0.06
36355 H 95.51549012881361 49.025311690544875 44.252584588399884 H 0.0 **** 0.06
36356 C 81.66450301678952 4.172367935803948 29.435059660051976 C 0.0 **** -0.24
36357 H 81.58677513619573 3.1622932083514286 29.032231771642863 H 0.0 **** 0.06
36358 H 81.60562202264906 4.89376527248622 28.62000458270238 H 0.0 **** 0.06
36359 H 82.61769009532073 4.283767387412979 29.95224476844291 H 0.0 **** 0.06
36360 H 80.84806372188925 4.3472352400438155 30.136169634967118 H 0.0 **** 0.06
36361 C 54.90147188537862 54.33796444148284 102.47669889082145 C 0.0 **** -0.24
36362 H 55.072896420825266 54.35669969960074 101.40037808032692 H 0.0 **** 0.06
36363 H 53.82926333315696 54.34623987781075 102.67338446481659 H 0.0 **** 0.06
36364 H 55.36146483235625 55.214810522818766 102.93338953787968 H 0.0 **** 0.06
36365 H 55.342303257594956 53.43541742553899 102.89911149908349 H 0.0 **** 0.06
36366 C 14.681644178815077 98.21098921238485 33.1731151816615 C 0.0 **** -0.24
36367 H 15.06797059194389 97.28028115131787 33.58714079739738 H 0.0 **** 0.06
36368 H 14.44587301644978 98.0688112416292 32.11745787381062 H 0.0 **** 0.06
36369 H 15.432508146303519 98.99406743588409 33.2753141510874 H 0.0 **** 0.06
36370 H 13.778716230299693 98.50050009845519 33.711268932750784 H 0.0 **** 0.06
36371 C 46.81031762265502 97.93778220188351 59.59602902498692 C 0.0 **** -0.24
36372 H 46.95862307588766 97.98705566887823 58.51758085742061 H 0.0 **** 0.06
36373 H 45.78142653679282 98.2103970163807 59.83463591340059 H 0.0 **** 0.06
36374 H 47.49384298767319 98.63113844982772 60.087487182349406 H 0.0 **** 0.06
36375 H 47.00885760489945 96.92448968389526 59.94439231775159 H 0.0 **** 0.06
36376 C 67.33365840954514 73.0757604803906 16.43895405473762 C 0.0 **** -0.24
36377 H 67.66074763099056 72.3969132026412 17.226111500936952 H 0.0 **** 0.06
36378 H 66.24554739211848 73.14305347716484 16.44595065964046 H 0.0 **** 0.06
36379 H 67.66832028955167 72.69874818525413 15.472761528874457 H 0.0 **** 0.06
36380 H 67.76001832551978 74.06432705650246 16.610992529498844 H 0.0 **** 0.06
36381 C 43.339178277711056 90.47348778329756 10.020596369513214 C 0.0 **** -0.24
36382 H 43.4120549587285 89.40904739562887 9.799265224817816 H 0.0 **** 0.06
36383 H 43.99468146278307 90.71624054700203 10.857901339164016 H 0.0 **** 0.06
36384 H 42.30940698434837 90.72109557278019 10.280575964860475 H 0.0 **** 0.06
36385 H 43.64056970498419 91.04756761777897 9.144642949210493 H 0.0 **** 0.06
36386 C 16.19321665873531 47.15008915945478 8.380148920131603 C 0.0 **** -0.24
36387 H 16.029009494395495 46.08309859172073 8.527749581028388 H 0.0 **** 0.06
36388 H 16.336349546454855 47.3515400916078 7.31774247969625 H 0.0 **** 0.06
36389 H 17.080856654306388 47.461799760692855 8.931050567779153 H 0.0 **** 0.06
36390 H 15.327036909726061 47.70447891192737 8.741923059037873 H 0.0 **** 0.06
36391 C 105.87570843970022 108.16590255490506 36.10888582522347 C 0.0 **** -0.24
36392 H 104.99559026575866 107.59030698216698 36.39543354581298 H 0.0 **** 0.06
36393 H 106.68888816839052 107.95465294844946 36.80477467938053 H 0.0 **** 0.06
36394 H 105.63939793239066 109.22920442133868 36.137977207739596 H 0.0 **** 0.06
36395 H 106.17865774120462 107.88734339763124 35.099476894841246 H 0.0 **** 0.06
36396 C 3.4919792745125164 40.91575187247577 80.30984205548351 C 0.0 **** -0.24
36397 H 2.941815107958689 41.559575845610084 79.62219531392647 H 0.0 **** 0.06
36398 H 4.374927490280527 40.52009698665188 79.8082560664311 H 0.0 **** 0.06
36399 H 2.852175570112024 40.09105045100597 80.62509859627662 H 0.0 **** 0.06
36400 H 3.797591486414774 41.49274945397195 81.18214406011002 H 0.0 **** 0.06
36401 C 45.585607134668095 47.06244175083755 56.5521293803979 C 0.0 **** -0.24
36402 H 45.87045792738655 48.00595461547848 57.016831784045905 H 0.0 **** 0.06
36403 H 45.14750162377334 46.40455575772437 57.304412952244036 H 0.0 **** 0.06
36404 H 46.46797834989303 46.58698684692458 56.123175347027825 H 0.0 **** 0.06
36405 H 44.85552670061426 47.25066198827873 55.76531648240757 H 0.0 **** 0.06
36406 C 31.08400982829349 31.48677683648478 94.70271399171821 C 0.0 **** -0.24
36407 H 31.625143155122018 30.666248925648915 94.23142582245538 H 0.0 **** 0.06
36408 H 30.481770039233822 31.099168267802327 95.52398475304841 H 0.0 **** 0.06
36409 H 30.435807237278254 31.96323798266249 93.96725288490109 H 0.0 **** 0.06
36410 H 31.79574846363346 32.21754264810474 95.08668573939684 H 0.0 **** 0.06
36411 C 35.87061803878211 66.03038499169008 97.7880217313141 C 0.0 **** -0.24
36412 H 36.4257815313652 66.71909893680254 98.42525990231482 H 0.0 **** 0.06
36413 H 35.770122041416215 65.07017952801823 98.2942626806883 H 0.0 **** 0.06
36414 H 36.40635892865686 65.89337162712673 96.84965463254507 H 0.0 **** 0.06
36415 H 34.88127620133031 66.44029374254774 97.5857190114941 H 0.0 **** 0.06
36416 C 33.31637637492895 79.34856194377242 59.99533433342032 C 0.0 **** -0.24
36417 H 33.719976194203184 78.72947825180015 60.79549078536155 H 0.0 **** 0.06
36418 H 32.28011674855355 79.06820616345375 59.80708854995976 H 0.0 **** 0.06
36419 H 33.90348682859948 79.19867485686756 59.08921290360803 H 0.0 **** 0.06
36420 H 33.36150521324191 80.39713432907328 60.28842505552706 H 0.0 **** 0.06
36421 C 28.650588243159874 1.2920174418862302 49.604435262331414 C 0.0 **** -0.24
36422 H 29.53613261762044 0.6970508883695175 49.82616660101381 H 0.0 **** 0.06
36423 H 27.815896762782756 0.629279676910727 49.37089989437354 H 0.0 **** 0.06
36424 H 28.851802312328203 1.937618578503816 48.749235892934735 H 0.0 **** 0.06
36425 H 28.397425628384042 1.9039573525571427 50.4705594628777 H 0.0 **** 0.06
36426 C 85.72400434096033 77.38504356802602 107.8927595880162 C 0.0 **** -0.24
36427 H 85.5862801227467 76.33131356226414 107.64757793347644 H 0.0 **** 0.06
36428 H 85.03664744246836 77.66321368003997 108.69174691706124 H 0.0 **** 0.06
36429 H 85.52210202453733 77.99262198955637 107.01044173461631 H 0.0 **** 0.06
36430 H 86.74927964215487 77.54985211905935 108.22114726566889 H 0.0 **** 0.06
36431 C 47.93137365311007 89.53971709474774 41.48469539189023 C 0.0 **** -0.24
36432 H 47.03062832308351 88.99729933467171 41.19703118209793 H 0.0 **** 0.06
36433 H 47.661014588307395 90.54424129898695 41.811560818584326 H 0.0 **** 0.06
36434 H 48.60466878484512 89.60428591784881 40.62982323426962 H 0.0 **** 0.06
36435 H 48.42817020687475 89.01377340902434 42.299703529957014 H 0.0 **** 0.06
36436 C 99.14457031846868 64.54228070225885 94.7476794529486 C 0.0 **** -0.24
36437 H 99.44151358732591 64.9739559600617 93.79157587201175 H 0.0 **** 0.06
36438 H 99.79718065742287 63.7016220939187 94.98347113667741 H 0.0 **** 0.06
36439 H 98.11276245369515 64.19581144983955 94.68454089089985 H 0.0 **** 0.06
36440 H 99.22744485767805 65.29853245831514 95.52889901518051 H 0.0 **** 0.06
36441 C 94.29759728897886 4.087558196335401 16.462504055244892 C 0.0 **** -0.24
36442 H 93.69342473342641 3.486182153329654 17.14248809077975 H 0.0 **** 0.06
36443 H 93.7045527729421 4.924167837041358 16.093648591586543 H 0.0 **** 0.06
36444 H 94.62083067695903 3.4719024295682246 15.623764547267626 H 0.0 **** 0.06
36445 H 95.1713026878219 4.466284181393899 16.992769424027472 H 0.0 **** 0.06
36446 C 50.6345940019444 33.158871728558324 83.7058469864946 C 0.0 **** -0.24
36447 H 50.136109624431185 33.33679451356417 84.65916944721187 H 0.0 **** 0.06
36448 H 50.409131666249564 32.14971430411967 83.36098049884427 H 0.0 **** 0.06
36449 H 51.711681307082095 33.269310269407015 83.83301281556132 H 0.0 **** 0.06
36450 H 50.279217448389716 33.88154038747237 82.97092834816863 H 0.0 **** 0.06
36451 C 59.03437787603676 60.92735417206654 67.88519180305396 C 0.0 **** -0.24
36452 H 58.96271437264946 61.7550203154301 67.17970122911989 H 0.0 **** 0.06
36453 H 60.06471111440783 60.571902221547475 67.92318200180634 H 0.0 **** 0.06
36454 H 58.381887025903694 60.11650043869497 67.5619461414524 H 0.0 **** 0.06
36455 H 58.73020477307381 61.26726078871582 68.87532820519415 H 0.0 **** 0.06
36456 C 31.544246700521683 36.42052490561966 8.139394387449386 C 0.0 **** -0.24
36457 H 31.333529307426602 37.27581942031982 8.782161363208274 H 0.0 **** 0.06
36458 H 32.51804366544039 36.004277373808236 8.397745574577016 H 0.0 **** 0.06
36459 H 31.550411321092156 36.74303252416388 7.097809182725882 H 0.0 **** 0.06
36460 H 30.775259983987837 35.662333799918315 8.281480471069301 H 0.0 **** 0.06
36461 C 82.73542955955674 44.835047388359555 14.441729347558592 C 0.0 **** -0.24
36462 H 83.16685834534047 44.65288651562935 15.426411795216282 H 0.0 **** 0.06
36463 H 81.6670217990245 45.02517314866367 14.543655361580477 H 0.0 **** 0.06
36464 H 82.89201066845527 43.96112223164113 13.809431919002932 H 0.0 **** 0.06
36465 H 83.21803860440968 45.70185906128472 13.989512662658868 H 0.0 **** 0.06
36466 C 31.98064334249628 88.05919430288887 52.077243603682234 C 0.0 **** -0.24
36467 H 32.10227039932886 87.36966122502253 52.91255363679858 H 0.0 **** 0.06
36468 H 32.95632748811593 88.44645168739191 51.780445483209235 H 0.0 **** 0.06
36469 H 31.338384764914053 88.88619059681878 52.37986863180265 H 0.0 **** 0.06
36470 H 31.526294137666582 87.53568295355348 51.236314053369654 H 0.0 **** 0.06
36471 C 62.78098414964852 83.38430306106852 70.49538078333762 C 0.0 **** -0.24
36472 H 63.31907514294717 82.75245210783896 69.7892276230117 H 0.0 **** 0.06
36473 H 61.726687813498486 83.10365852164318 70.50337162461727 H 0.0 **** 0.06
36474 H 62.876575767225205 84.42841413143577 70.19520376291251 H 0.0 **** 0.06
36475 H 63.19958433556876 83.25354982843157 71.49262362040668 H 0.0 **** 0.06
36476 C 71.64528168304179 83.65025593134216 18.688229822111538 C 0.0 **** -0.24
36477 H 72.15857794875905 82.71221293776092 18.47838913051882 H 0.0 **** 0.06
36478 H 70.58382847066514 83.45692912533426 18.844865423561316 H 0.0 **** 0.06
36479 H 71.77015603956931 84.3292600303777 17.84480959071911 H 0.0 **** 0.06
36480 H 72.06821360642437 84.10331434827839 19.58548540263405 H 0.0 **** 0.06
36481 C 59.88619791484831 67.08607748780463 46.28833215802945 C 0.0 **** -0.24
36482 H 59.85059358815164 67.41029963069599 45.24886540209923 H 0.0 **** 0.06
36483 H 59.0195705585067 67.47682258776308 46.821570522848106 H 0.0 **** 0.06
36484 H 60.79815260710433 67.45823561799364 46.75403246518857 H 0.0 **** 0.06
36485 H 59.87659866941425 65.99601142053018 46.32827934108275 H 0.0 **** 0.06
36486 C 67.09724376649444 52.540740748699214 73.11712058730478 C 0.0 **** -0.24
36487 H 66.60597794523207 53.29350283760123 73.73301989333827 H 0.0 **** 0.06
36488 H 66.66608861592627 51.5618845888544 73.3291365360242 H 0.0 **** 0.06
36489 H 68.16268676693403 52.52528989936307 73.34460091710852 H 0.0 **** 0.06
36490 H 66.95267621403474 52.78119562810964 72.06405386788981 H 0.0 **** 0.06
36491 C 88.53899023013594 26.32541269344922 91.42582999830414 C 0.0 **** -0.24
36492 H 87.5404659277017 26.112300292889287 91.04438514142934 H 0.0 **** 0.06
36493 H 88.8121375712805 25.57543495241746 92.16917975295016 H 0.0 **** 0.06
36494 H 88.54984866005407 27.313186391232932 91.88469162657769 H 0.0 **** 0.06
36495 H 89.25438361784568 26.29859018956964 90.60315036612104 H 0.0 **** 0.06
36496 C 36.687770702330184 96.41564285709744 24.514166976920166 C 0.0 **** -0.24
36497 H 36.58976240793129 97.33205499675265 23.931516080319653 H 0.0 **** 0.06
36498 H 36.55333649107911 95.55412739813782 23.859366650988505 H 0.0 **** 0.06
36499 H 35.92903166147437 96.40000745565743 25.296216487572252 H 0.0 **** 0.06
36500 H 37.67804123002317 96.37686052420915 24.96675069287795 H 0.0 **** 0.06
36501 C 26.295878222922738 34.235822299445694 11.352134356715766 C 0.0 **** -0.24
36502 H 26.425681816543346 33.611986999515615 12.236078570465963 H 0.0 **** 0.06
36503 H 25.60219736337646 35.04531894848476 11.57822698932992 H 0.0 **** 0.06
36504 H 25.89799555675043 33.63211379394238 10.536945269262986 H 0.0 **** 0.06
36505 H 27.258968576580855 34.65420117509777 11.057633065550561 H 0.0 **** 0.06
36506 C 4.254153948750627 25.936868152793856 19.734839092651566 C 0.0 **** -0.24
36507 H 5.2384465153294855 26.05135117320735 19.28054661470875 H 0.0 **** 0.06
36508 H 3.786060323713258 25.025614083829648 19.362885828703376 H 0.0 **** 0.06
36509 H 3.633939160604257 26.795398310323463 19.476648342643045 H 0.0 **** 0.06
36510 H 4.3587649780171205 25.876796921953044 20.81793503514059 H 0.0 **** 0.06
36511 C 67.48919105369167 70.67594326709957 101.5371072940469 C 0.0 **** -0.24
36512 H 68.19790723440089 70.67846724568614 102.36573079580684 H 0.0 **** 0.06
36513 H 66.54732692260839 71.11569913668257 101.86351584820649 H 0.0 **** 0.06
36514 H 67.31712003483482 69.65038165340854 101.20993024634467 H 0.0 **** 0.06
36515 H 67.89533169417689 71.25729914204001 100.70991690248603 H 0.0 **** 0.06
36516 C 68.36644490805735 2.110502497812858 41.08299296789125 C 0.0 **** -0.24
36517 H 67.37425039151276 2.394945121140853 40.731027976865676 H 0.0 **** 0.06
36518 H 68.82178426452586 1.4242209842129476 40.3694324678139 H 0.0 **** 0.06
36519 H 68.28008934190711 1.622898386382242 42.05375338359214 H 0.0 **** 0.06
36520 H 68.9869187073496 3.0014442017735172 41.178271480695535 H 0.0 **** 0.06
36521 C 51.41313699157352 98.50280755923566 70.39948153023079 C 0.0 **** -0.24
36522 H 51.49417827761233 97.41678967262854 70.43749851094607 H 0.0 **** 0.06
36523 H 50.41725565350759 98.80372854883628 70.72655926076308 H 0.0 **** 0.06
36524 H 51.57784166769505 98.84353361841183 69.37786226289364 H 0.0 **** 0.06
36525 H 52.161486592765144 98.9456442828263 71.05668269510466 H 0.0 **** 0.06
36526 C 76.19080619852048 7.969792956704225 52.50223780504075 C 0.0 **** -0.24
36527 H 76.09724129650886 7.9579905439812535 51.41659691315576 H 0.0 **** 0.06
36528 H 76.95427927755063 7.254936807140453 52.807849269216064 H 0.0 **** 0.06
36529 H 75.23617205667891 7.698120305811059 52.95165458269426 H 0.0 **** 0.06
36530 H 76.47499730735638 8.969306514894981 52.8310294012588 H 0.0 **** 0.06
36531 C 92.18098394203115 12.922463912164886 24.20559509207507 C 0.0 **** -0.24
36532 H 91.31273697877177 12.957847692385144 24.86400460541634 H 0.0 **** 0.06
36533 H 92.86308185858684 13.734219101833673 24.461235229018627 H 0.0 **** 0.06
36534 H 91.85660011188797 13.032204829744074 23.17120402386425 H 0.0 **** 0.06
36535 H 92.69057755218542 11.96758126623675 24.327968565666964 H 0.0 **** 0.06
36536 C 46.69736015572181 79.20723142604993 38.96926161219537 C 0.0 **** -0.24
36537 H 45.63611401727229 79.24322851464622 39.21563270075229 H 0.0 **** 0.06
36538 H 46.81747383812342 78.95408684104578 37.91617550182463 H 0.0 **** 0.06
36539 H 47.186558037648865 78.45095327955508 39.58303734917261 H 0.0 **** 0.06
36540 H 47.14770544368963 80.18027217061122 39.16402471721756 H 0.0 **** 0.06
36541 C 87.0266113665613 46.38618806751475 88.91014363965894 C 0.0 **** -0.24
36542 H 87.83406060905564 46.91213302078677 88.4024287548462 H 0.0 **** 0.06
36543 H 86.19727956438027 46.23819928864327 88.21770447327833 H 0.0 **** 0.06
36544 H 86.68837930971446 46.97569590686311 89.7624390447657 H 0.0 **** 0.06
36545 H 87.38572175906586 45.41778187380271 89.25832466767693 H 0.0 **** 0.06
36546 C 94.86635986140772 90.2818525639864 46.655076652670346 C 0.0 **** -0.24
36547 H 94.33449767838053 89.46385090357538 46.169076889310986 H 0.0 **** 0.06
36548 H 94.90942309705429 91.13820799039635 45.98078154484307 H 0.0 **** 0.06
36549 H 95.87818173732242 89.96213458627358 46.901944455798 H 0.0 **** 0.06
36550 H 94.34147273990709 90.56468342104978 47.56789213812692 H 0.0 **** 0.06
36551 C 32.85108056078613 79.33180768357448 37.83061007750831 C 0.0 **** -0.24
36552 H 31.772420899830138 79.4721160905674 37.75667241660881 H 0.0 **** 0.06
36553 H 33.34287384834829 80.30457450586152 37.86330548567469 H 0.0 **** 0.06
36554 H 33.20464462674798 78.7745916513922 36.96336871351917 H 0.0 **** 0.06
36555 H 33.083538718001336 78.77636698750166 38.738758557168865 H 0.0 **** 0.06
36556 C 42.974485279034695 101.50541928035544 65.30873887886054 C 0.0 **** -0.24
36557 H 42.44631753266651 100.8231366414801 64.64308876890789 H 0.0 **** 0.06
36558 H 43.97676422461632 101.68854688286956 64.91965517544583 H 0.0 **** 0.06
36559 H 43.04535931537947 101.06177543365412 66.30170456697931 H 0.0 **** 0.06
36560 H 42.430178012860665 102.4471660670916 65.36984855902608 H 0.0 **** 0.06
36561 C 30.793414334262195 13.584999939430539 97.04279094365918 C 0.0 **** -0.24
36562 H 30.32462588515699 14.414180358293091 97.57192707541537 H 0.0 **** 0.06
36563 H 30.437034191033277 12.641618075646413 97.45736150786783 H 0.0 **** 0.06
36564 H 31.875638815276304 13.645996592687059 97.15802309883733 H 0.0 **** 0.06
36565 H 30.537078957602674 13.638580123113858 95.98500969450045 H 0.0 **** 0.06
36566 C 32.08414439748947 29.44745277655946 24.95371823847543 C 0.0 **** -0.24
36567 H 32.061982921782715 30.53220232699016 24.85107747847628 H 0.0 **** 0.06
36568 H 31.722797566590145 29.16933119973291 25.94416599562149 H 0.0 **** 0.06
36569 H 33.105604499233266 29.091043430628446 24.82488715652911 H 0.0 **** 0.06
36570 H 31.444294274335164 28.997836686023533 24.193316280842463 H 0.0 **** 0.06
36571 C 58.23794541658333 78.45597924030388 23.90875738450511 C 0.0 **** -0.24
36572 H 59.18609152828941 78.27123507544475 23.402034091375896 H 0.0 **** 0.06
36573 H 58.29906779941899 79.39409346250709 24.462196380388463 H 0.0 **** 0.06
36574 H 58.03027335401748 77.63830567207724 24.599196469078038 H 0.0 **** 0.06
36575 H 57.43892252289635 78.52098221054315 23.170228514501048 H 0.0 **** 0.06
36576 C 42.293784447230564 52.72875814251018 29.406072938144 C 0.0 **** -0.24
36577 H 43.171800897753656 53.33515443294084 29.184545298462155 H 0.0 **** 0.06
36578 H 42.40631705771827 51.74566446004672 28.94768648164242 H 0.0 **** 0.06
36579 H 41.4053591866693 53.21737864608159 29.005753773921285 H 0.0 **** 0.06
36580 H 42.19247051330342 52.616753035179826 30.485725300579205 H 0.0 **** 0.06
36581 C 22.165500337181314 101.46358060065458 22.46510523387616 C 0.0 **** -0.24
36582 H 21.755416444442943 100.56665490928967 22.000662147188393 H 0.0 **** 0.06
36583 H 21.45871358102751 102.28510784835802 22.354356611164178 H 0.0 **** 0.06
36584 H 23.106299807246543 101.724867862162 21.98148436389812 H 0.0 **** 0.06
36585 H 22.342143071017134 101.27561837432451 23.524529818043277 H 0.0 **** 0.06
36586 C 30.642549875454904 47.14552203688737 71.84663387469347 C 0.0 **** -0.24
36587 H 31.471540127021797 47.222489152319895 71.14329606402032 H 0.0 **** 0.06
36588 H 29.706755925491052 47.05175333999969 71.29554224610573 H 0.0 **** 0.06
36589 H 30.61077809042888 48.039234603505605 72.46929849758027 H 0.0 **** 0.06
36590 H 30.782209810814948 46.26726208400012 72.47739646940435 H 0.0 **** 0.06
36591 C 21.022920447181775 54.029032883182026 67.39353730042944 C 0.0 **** -0.24
36592 H 21.902622852491163 54.144036160775755 66.76024606378638 H 0.0 **** 0.06
36593 H 20.97337997990661 54.8579163474854 68.10051386882083 H 0.0 **** 0.06
36594 H 21.0876076436449 53.08835888177319 67.93905336852436 H 0.0 **** 0.06
36595 H 20.12692661813537 54.02817428598195 66.77185631838881 H 0.0 **** 0.06
36596 C 57.33122450500673 53.74145054905415 33.04846844330702 C 0.0 **** -0.24
36597 H 56.65441151280794 54.595172404013226 32.99920290979 H 0.0 **** 0.06
36598 H 56.88304527931075 52.95766117253646 33.659565395003646 H 0.0 **** 0.06
36599 H 58.27716694183107 54.052728377153926 33.49180453532088 H 0.0 **** 0.06
36600 H 57.509211533746395 53.36103554542234 32.042188189025346 H 0.0 **** 0.06
36601 C 26.03696321670256 104.15350760786619 79.27985238284045 C 0.0 **** -0.24
36602 H 26.65835637223134 104.49819905076703 78.4527083393725 H 0.0 **** 0.06
36603 H 25.30212427751377 104.92012751503259 79.52532235484392 H 0.0 **** 0.06
36604 H 26.66472068106745 103.96049537878568 80.14936010145865 H 0.0 **** 0.06
36605 H 25.52389133396366 103.2362242518324 78.99082235750657 H 0.0 **** 0.06
36606 C 93.39019910517959 96.54892338418558 20.50076576895214 C 0.0 **** -0.24
36607 H 92.38603104498557 96.62556624749617 20.91898376572138 H 0.0 **** 0.06
36608 H 93.42139952566777 97.05308658739638 19.535437427073806 H 0.0 **** 0.06
36609 H 93.64956218414241 95.49803013963651 20.371077438261135 H 0.0 **** 0.06
36610 H 94.10204678395579 97.01751993476029 21.17920511288516 H 0.0 **** 0.06
36611 C 43.30984643927315 97.29203454836805 90.66620389367529 C 0.0 **** -0.24
36612 H 42.832697068076875 96.32958078699835 90.48338140065243 H 0.0 **** 0.06
36613 H 43.26345655540929 97.89787227476083 89.75990779788884 H 0.0 **** 0.06
36614 H 44.350934421578735 97.13428831912202 90.94444966234784 H 0.0 **** 0.06
36615 H 42.790767818031576 97.8067362074068 91.47451845631161 H 0.0 **** 0.06
36616 C 77.8201449721252 60.781733193016066 42.66760929490954 C 0.0 **** -0.24
36617 H 77.29165429629882 61.70515817640802 42.428749886736824 H 0.0 **** 0.06
36618 H 78.17736998670182 60.82412737054034 43.69604832374375 H 0.0 **** 0.06
36619 H 78.66805321499368 60.66407488620126 41.99175718797483 H 0.0 **** 0.06
36620 H 77.14252955421071 59.93626984167798 42.55169598327652 H 0.0 **** 0.06
36621 C 30.716689161356385 78.53331942151033 89.26529723991476 C 0.0 **** -0.24
36622 H 29.654572241205415 78.69883657053424 89.44710374807168 H 0.0 **** 0.06
36623 H 30.89151074524284 77.47386006152124 89.07305459534864 H 0.0 **** 0.06
36624 H 31.28680597659138 78.84244561268781 90.14093394544015 H 0.0 **** 0.06
36625 H 31.032134171030748 79.11705320116084 88.40100438352783 H 0.0 **** 0.06
36626 C 65.80478552978548 31.499524981121866 24.381170968754247 C 0.0 **** -0.24
36627 H 64.75326865024692 31.239795877315274 24.504337192349084 H 0.0 **** 0.06
36628 H 66.02869672997417 32.3916951473538 24.966586263688612 H 0.0 **** 0.06
36629 H 66.00972352042606 31.693277284906856 23.32872558659008 H 0.0 **** 0.06
36630 H 66.42570260303313 30.673045815171662 24.726724199517065 H 0.0 **** 0.06
36631 C 5.9975649007007235 99.50051622591033 34.53467499202367 C 0.0 **** -0.24
36632 H 6.6797450746264815 100.33980187079048 34.67163739948313 H 0.0 **** 0.06
36633 H 6.015159501256434 99.18594973401137 33.49065043659607 H 0.0 **** 0.06
36634 H 4.986890666177686 99.80502290207816 34.80681676826225 H 0.0 **** 0.06
36635 H 6.309850167562715 98.67102522273407 35.16969191055682 H 0.0 **** 0.06
36636 C 88.18738054827968 82.48002758897817 90.23641163321282 C 0.0 **** -0.24
36637 H 87.7841585536152 83.26511127147954 90.8756490471524 H 0.0 **** 0.06
36638 H 87.36613247611271 81.91356181686196 89.79563042729083 H 0.0 **** 0.06
36639 H 88.81126296222313 81.81262987580725 90.83056890870547 H 0.0 **** 0.06
36640 H 88.78553668397099 82.92854722387253 89.44365555212194 H 0.0 **** 0.06
36641 C 95.86015926037209 14.37497430697304 93.63408390487433 C 0.0 **** -0.24
36642 H 95.1644900615128 14.241077013325956 94.46286359599384 H 0.0 **** 0.06
36643 H 95.35906560569308 14.132338256329582 92.69647001404815 H 0.0 **** 0.06
36644 H 96.71720500104053 13.715982753965463 93.76985043815989 H 0.0 **** 0.06
36645 H 96.19767018952312 15.41125878334337 93.60789728592664 H 0.0 **** 0.06
36646 C 26.877945970962994 80.15032513240931 108.50802730860437 C 0.0 **** -0.24
36647 H 26.715021116536285 81.00732087850486 107.85399162277251 H 0.0 **** 0.06
36648 H 26.336234106881324 80.29944711460479 109.44270843834258 H 0.0 **** 0.06
36649 H 27.94252683462726 80.05087441562279 108.71729734753337 H 0.0 **** 0.06
36650 H 26.517010626344724 79.24575071596024 108.01891111722935 H 0.0 **** 0.06
36651 C 63.60766723740349 102.20503192526787 56.58104591461438 C 0.0 **** -0.24
36652 H 62.76877808327737 101.97734598299942 55.92296386111761 H 0.0 **** 0.06
36653 H 64.22505392181168 102.97958513235373 56.12596693326577 H 0.0 **** 0.06
36654 H 64.20370225027438 101.30553352818235 56.733196270488946 H 0.0 **** 0.06
36655 H 63.23016054824308 102.55807324457123 57.54064707340717 H 0.0 **** 0.06
36656 C 41.365954305437015 89.61373440742213 50.19628679381307 C 0.0 **** -0.24
36657 H 41.08972361779411 88.88079381222835 49.438670450272724 H 0.0 **** 0.06
36658 H 41.30401882342528 89.15684988082518 51.183831919364025 H 0.0 **** 0.06
36659 H 40.68403083597198 90.46325206751675 50.14451755970779 H 0.0 **** 0.06
36660 H 42.3854519652898 89.9552122852682 50.01605843372158 H 0.0 **** 0.06
36661 C 109.44294307098384 32.137693928825456 85.21229664308947 C 0.0 **** -0.24
36662 H 108.36645825867123 32.119173461512815 85.04874177158507 H 0.0 **** 0.06
36663 H 109.66997971545204 31.70397600152478 86.18656150539181 H 0.0 **** 0.06
36664 H 109.79761044635414 33.167694265971136 85.18106845109573 H 0.0 **** 0.06
36665 H 109.93945499313337 31.55991868403376 84.43275861495852 H 0.0 **** 0.06
36666 C 76.75080376690511 13.249469935169273 40.61264373410965 C 0.0 **** -0.24
36667 H 77.42780722373385 12.413941740289857 40.79212032200872 H 0.0 **** 0.06
36668 H 76.73060551549185 13.476583704786975 39.54592900320037 H 0.0 **** 0.06
36669 H 77.0976434507138 14.122497617863175 41.1639745603741 H 0.0 **** 0.06
36670 H 75.74794981977465 12.983143705788152 40.94621854498774 H 0.0 **** 0.06
36671 C 17.020266330355962 72.66071016575069 39.64622174397266 C 0.0 **** -0.24
36672 H 16.496785914909566 71.93450495333151 40.26816315045414 H 0.0 **** 0.06
36673 H 18.08313542217906 72.42344192720596 39.62795013534594 H 0.0 **** 0.06
36674 H 16.876857844731852 73.66050268930603 40.057965423675626 H 0.0 **** 0.06
36675 H 16.621024971922548 72.62479694024572 38.63259733520886 H 0.0 **** 0.06
36676 C 89.07365252476681 79.80344160902567 15.097874440536316 C 0.0 **** -0.24
36677 H 89.96529730992714 80.24355616677015 14.65105162293412 H 0.0 **** 0.06
36678 H 89.3464244161154 79.28210746264521 16.015655507523036 H 0.0 **** 0.06
36679 H 88.62643276609835 79.09821237010038 14.397186862529253 H 0.0 **** 0.06
36680 H 88.35620666387034 80.59157067719543 15.327264700593815 H 0.0 **** 0.06
36681 C 42.66402710510761 101.91653755664944 61.71387302913256 C 0.0 **** -0.24
36682 H 43.40286552870879 102.40164223847309 61.076604595865774 H 0.0 **** 0.06
36683 H 43.11366594339256 101.04604969051579 62.192313923486154 H 0.0 **** 0.06
36684 H 41.8147476017553 101.60072105793168 61.109445166796135 H 0.0 **** 0.06
36685 H 42.326889627898424 102.61800488073851 62.47795538676442 H 0.0 **** 0.06
36686 C 63.79851602936428 62.50334201777076 13.290311093826574 C 0.0 **** -0.24
36687 H 64.35675661963066 61.567782516568684 13.312776446101907 H 0.0 **** 0.06
36688 H 64.33237410512382 63.23062178075054 12.679219833468125 H 0.0 **** 0.06
36689 H 63.693937774911504 62.88786436990347 14.305375557114303 H 0.0 **** 0.06
36690 H 62.80995914164754 62.32672411802173 12.865541393297178 H 0.0 **** 0.06
36691 C 34.111430130072506 70.15881821436037 45.91274620182634 C 0.0 **** -0.24
36692 H 34.5618286392089 71.0464072064805 46.356200583737575 H 0.0 **** 0.06
36693 H 33.96841724202517 70.31841163406742 44.84424346729293 H 0.0 **** 0.06
36694 H 33.14796571220063 69.96616647283136 46.38399396375621 H 0.0 **** 0.06
36695 H 34.76931587088097 69.30305293167947 46.068598896675724 H 0.0 **** 0.06
36696 C 54.36558858505626 64.18238971692398 58.35031261205239 C 0.0 **** -0.24
36697 H 54.777096043364224 63.239612242571695 57.990718287995435 H 0.0 **** 0.06
36698 H 55.17700109864313 64.8862762776838 58.53488318476553 H 0.0 **** 0.06
36699 H 53.81719600550986 64.00914365813497 59.2763462260632 H 0.0 **** 0.06
36700 H 53.69049339804957 64.59366798931057 57.60069572899164 H 0.0 **** 0.06
36701 C 2.407397673111518 39.733681559952856 70.80873201685154 C 0.0 **** -0.24
36702 H 1.4953763873626258 40.330941112796566 70.8380258132396 H 0.0 **** 0.06
36703 H 2.6807640831284516 39.43931657005109 71.82269059133245 H 0.0 **** 0.06
36704 H 3.2131984910604388 40.32323911440776 70.37126795741102 H 0.0 **** 0.06
36705 H 2.2383482521736084 38.84369348496172 70.20408642533363 H 0.0 **** 0.06
36706 C 35.47043050033071 32.799827209528615 70.49064567817814 C 0.0 **** -0.24
36707 H 35.80565769728872 33.68224605977545 71.03605248287823 H 0.0 **** 0.06
36708 H 34.83785879317506 33.10666008610275 69.65719350451707 H 0.0 **** 0.06
36709 H 34.90129443631136 32.1544352742998 71.16031521877956 H 0.0 **** 0.06
36710 H 36.335245775516825 32.25732387324763 70.11019926092851 H 0.0 **** 0.06
36711 C 42.61582433266557 14.896085363987027 69.52799240122084 C 0.0 **** -0.24
36712 H 41.73884055433547 15.489721089170473 69.26990531867608 H 0.0 **** 0.06
36713 H 43.41624999054892 15.55745798883595 69.86015034039474 H 0.0 **** 0.06
36714 H 42.94637527832771 14.337623444173346 68.65244617111034 H 0.0 **** 0.06
36715 H 42.36145445459522 14.201569823202306 70.32815110597767 H 0.0 **** 0.06
36716 C 80.77840960795834 53.54595495244442 99.72118881189465 C 0.0 **** -0.24
36717 H 81.17988182313061 54.151827684738066 98.90866793625622 H 0.0 **** 0.06
36718 H 80.1555292019402 54.1672302549193 100.3652058087992 H 0.0 **** 0.06
36719 H 81.60098336509418 53.1291353046592 100.30301068952264 H 0.0 **** 0.06
36720 H 80.17865124128315 52.735597053468126 99.30800871651226 H 0.0 **** 0.06
36721 C 14.193568774878813 25.641619609459866 107.5956279898154 C 0.0 **** -0.24
36722 H 13.254306705135065 25.895050420263487 108.0885453424037 H 0.0 **** 0.06
36723 H 15.007356823227127 26.199055230397818 108.05829239492324 H 0.0 **** 0.06
36724 H 14.129869376803555 25.89954451738555 106.53894547115995 H 0.0 **** 0.06
36725 H 14.37995329568119 24.572120152190337 107.6983783442673 H 0.0 **** 0.06
36726 C 53.21889206573917 86.78546207906803 51.6767603489104 C 0.0 **** -0.24
36727 H 52.721600915204135 87.2031526596088 52.552295022624776 H 0.0 **** 0.06
36728 H 53.23233456884361 87.52846260599641 50.878874131079556 H 0.0 **** 0.06
36729 H 52.677762405550766 85.90121609877926 51.33996574898424 H 0.0 **** 0.06
36730 H 54.24074769180339 86.51013471810383 51.93590459429786 H 0.0 **** 0.06
36731 C 52.531414713432895 97.30218743198498 94.38607613813758 C 0.0 **** -0.24
36732 H 52.55383000923925 96.2540023984107 94.68573861043184 H 0.0 **** 0.06
36733 H 52.603602163327935 97.93401203562325 95.27193084272483 H 0.0 **** 0.06
36734 H 51.597207926094455 97.51039470883467 93.86495211268188 H 0.0 **** 0.06
36735 H 53.37128829155591 97.50737186251689 93.72273870066005 H 0.0 **** 0.06
36736 C 6.134855966948862 90.69881605888105 50.78513711495392 C 0.0 **** -0.24
36737 H 5.452155200578659 89.89613062564638 50.504376225374905 H 0.0 **** 0.06
36738 H 7.162588530205994 90.34215037012109 50.712121626348605 H 0.0 **** 0.06
36739 H 5.928824713052109 91.00825989220004 51.809051870007714 H 0.0 **** 0.06
36740 H 5.995253131007075 91.54587523851922 50.11376341886423 H 0.0 **** 0.06
36741 C 36.24917792306394 33.74133241201538 98.20814427665306 C 0.0 **** -0.24
36742 H 36.263368134211845 34.768731529476156 98.57269273927662 H 0.0 **** 0.06
36743 H 35.274239876532306 33.5240141658001 97.77200617816088 H 0.0 **** 0.06
36744 H 36.437475598009286 33.058960634567484 99.03759931151477 H 0.0 **** 0.06
36745 H 37.02343429767578 33.614894050121265 97.45062970314555 H 0.0 **** 0.06
36746 C 43.997991353340694 86.31853877223355 89.87019160873501 C 0.0 **** -0.24
36747 H 43.66561569458355 85.46479755853085 89.27997452572896 H 0.0 **** 0.06
36748 H 44.85659876218443 86.7832701505917 89.38532777700485 H 0.0 **** 0.06
36749 H 44.28023508287242 85.9826263033327 90.86781435117683 H 0.0 **** 0.06
36750 H 43.18728557274039 87.0433733765417 89.94751445186529 H 0.0 **** 0.06
36751 C 1.0120052764792007 14.33701946085364 55.96661570620995 C 0.0 **** -0.24
36752 H 0.8522735720232788 13.265739718625525 55.84673938997332 H 0.0 **** 0.06
36753 H 0.17188830253360265 14.880507561333957 55.53518902815722 H 0.0 **** 0.06
36754 H 1.9319912247249817 14.626037629395114 55.45871197006824 H 0.0 **** 0.06
36755 H 1.0925532312067219 14.575331966422311 57.027644022299 H 0.0 **** 0.06
36756 C 26.128641089496966 68.54196301068527 50.22647194306575 C 0.0 **** -0.24
36757 H 26.54361759882954 67.95482982381577 49.40651704302303 H 0.0 **** 0.06
36758 H 26.779548468065627 69.39289174657216 50.42891888950908 H 0.0 **** 0.06
36759 H 26.05622257688009 67.91911583176488 51.117800048532956 H 0.0 **** 0.06
36760 H 25.136710939619718 68.89991177546608 49.95145721210713 H 0.0 **** 0.06
36761 C 86.73618884206712 87.84530855771206 2.297571284473065 C 0.0 **** -0.24
36762 H 85.95745676819689 87.31407387675807 2.8443673253284913 H 0.0 **** 0.06
36763 H 87.115939482633 87.20976567531056 1.4971210388110023 H 0.0 **** 0.06
36764 H 87.54996888451927 88.0978746339658 2.9781264523258244 H 0.0 **** 0.06
36765 H 86.32196208276355 88.7582386972465 1.8708470564270527 H 0.0 **** 0.06
36766 C 26.331864453875028 37.24232606203492 45.60816941886988 C 0.0 **** -0.24
36767 H 25.42344530378608 37.28405202087026 45.0065063086761 H 0.0 **** 0.06
36768 H 26.164866980525517 37.757765999385754 46.554223012520225 H 0.0 **** 0.06
36769 H 27.146292806578174 37.72578333105662 45.069695338712506 H 0.0 **** 0.06
36770 H 26.59063478421575 36.20161004415249 45.80252202583066 H 0.0 **** 0.06
36771 C 14.540937177022613 74.14014186758098 79.26116923423842 C 0.0 **** -0.24
36772 H 15.184287005748658 75.01422549235801 79.36832679385961 H 0.0 **** 0.06
36773 H 13.497191847742755 74.45395274912465 79.26825958739579 H 0.0 **** 0.06
36774 H 14.720871064844303 73.45450044632457 80.08838047342061 H 0.0 **** 0.06
36775 H 14.763577863664224 73.63975771743435 78.31883878147426 H 0.0 **** 0.06
36776 C 57.64913556195735 45.83173287972469 98.75583718120716 C 0.0 **** -0.24
36777 H 57.55357730583093 46.74079942519088 98.16096613345152 H 0.0 **** 0.06
36778 H 56.6597272209789 45.40687811423231 98.92981851789219 H 0.0 **** 0.06
36779 H 58.11559364031986 46.070868311728205 99.71171949002871 H 0.0 **** 0.06
36780 H 58.26559424693654 45.11087117213278 98.22005655141075 H 0.0 **** 0.06
36781 C 35.548354495077746 14.295642533403338 98.52274322694956 C 0.0 **** -0.24
36782 H 34.93888180965405 14.865802974477504 97.82187807364559 H 0.0 **** 0.06
36783 H 35.35593477985955 13.2308921123645 98.38898941386924 H 0.0 **** 0.06
36784 H 35.29746825613995 14.585612288697718 99.54236052147087 H 0.0 **** 0.06
36785 H 36.60296911848454 14.499956251562793 98.3351883948306 H 0.0 **** 0.06
36786 C 11.213224650318239 2.3865379370852224 58.43725927437344 C 0.0 **** -0.24
36787 H 10.25052148981436 2.051515646562734 58.82274018138614 H 0.0 **** 0.06
36788 H 11.055280770451816 3.170640663106468 57.69581704572402 H 0.0 **** 0.06
36789 H 11.730550894008331 1.5466884156495837 57.9744340842623 H 0.0 **** 0.06
36790 H 11.816332262838245 2.7773742155961543 59.25744225909412 H 0.0 **** 0.06
36791 C 74.52364615216463 86.55368062890511 78.50977645835206 C 0.0 **** -0.24
36792 H 74.27592822021997 87.26287567087843 77.71997389927121 H 0.0 **** 0.06
36793 H 73.64774824625201 85.94846887296723 78.74301333599931 H 0.0 **** 0.06
36794 H 74.8372593698485 87.09808517168466 79.40133598043263 H 0.0 **** 0.06
36795 H 75.3349306469668 85.90654993477193 78.17566387136544 H 0.0 **** 0.06
36796 C 80.61913661665439 104.02725584434998 3.2153020453534964 C 0.0 **** -0.24
36797 H 80.5822288164461 103.33109712934517 4.052940808853094 H 0.0 **** 0.06
36798 H 80.16172399785661 104.97268457637203 3.5088376101022334 H 0.0 **** 0.06
36799 H 80.0755112593819 103.60718603596943 2.3695044019401195 H 0.0 **** 0.06
36800 H 81.65721290776507 104.19901923285234 2.931358746395233 H 0.0 **** 0.06
36801 C 102.19258406436597 73.8983443191408 7.6852252701289885 C 0.0 **** -0.24
36802 H 102.62880435068027 73.4220460097716 8.564008924026542 H 0.0 **** 0.06
36803 H 101.71953594364794 74.83549451218633 7.977765574763449 H 0.0 **** 0.06
36804 H 101.44678571761713 73.23576122360407 7.246088242130504 H 0.0 **** 0.06
36805 H 102.97595455748004 74.0987139768747 6.954648438287196 H 0.0 **** 0.06
36806 C 76.54306135363481 102.77018974798355 100.84962936232779 C 0.0 **** -0.24
36807 H 76.74918331551115 103.57020585160353 100.13890592020063 H 0.0 **** 0.06
36808 H 77.2875536541348 102.7913616296352 101.64583590397899 H 0.0 **** 0.06
36809 H 76.58539487563685 101.80916176530172 100.33666837722514 H 0.0 **** 0.06
36810 H 75.54946423055387 102.91002517651893 101.2763467297136 H 0.0 **** 0.06
36811 C 58.39512300255558 28.55211803074556 39.72397021898769 C 0.0 **** -0.24
36812 H 58.235873556140916 29.42779904744492 39.09535571385959 H 0.0 **** 0.06
36813 H 58.25395025232433 28.825573157768247 40.77034562297217 H 0.0 **** 0.06
36814 H 59.40998683922032 28.1805503138894 39.57898837823183 H 0.0 **** 0.06
36815 H 57.681001348022335 27.774239865535492 39.45208654962596 H 0.0 **** 0.06
36816 C 105.91859585655168 27.22638380133199 41.81801865577421 C 0.0 **** -0.24
36817 H 106.1793789328845 26.444468943990415 42.53231220970028 H 0.0 **** 0.06
36818 H 104.8353663362747 27.34921132770043 41.79503794629299 H 0.0 **** 0.06
36819 H 106.27403211200063 26.94535177784131 40.82680227192532 H 0.0 **** 0.06
36820 H 106.38506210876704 28.164401798416222 42.11905741663975 H 0.0 **** 0.06
36821 C 46.35134630185246 14.901800787923996 3.3917182206563865 C 0.0 **** -0.24
36822 H 47.12426996544775 15.607846772311127 3.0879799372540617 H 0.0 **** 0.06
36823 H 45.45718935510081 15.448706592558015 3.6906801809936667 H 0.0 **** 0.06
36824 H 46.712538606090845 14.306961343722222 4.230149479980426 H 0.0 **** 0.06
36825 H 46.112844142302606 14.24367503893555 2.555256529996427 H 0.0 **** 0.06
36826 C 61.68923400004559 80.32546368769857 1.8761764537640033 C 0.0 **** -0.24
36827 H 60.62312575862845 80.15300639901014 1.7342733764450031 H 0.0 **** 0.06
36828 H 62.19603650370031 80.27861634103799 0.9120636832631135 H 0.0 **** 0.06
36829 H 62.0959959830663 79.56023965271169 2.537929255244009 H 0.0 **** 0.06
36830 H 61.84289961213939 81.30884827235664 2.3210972634979044 H 0.0 **** 0.06
36831 C 87.19009871971258 60.00004229020686 43.95582891682835 C 0.0 **** -0.24
36832 H 86.69619920273371 60.93664594093036 44.2132890099013 H 0.0 **** 0.06
36833 H 88.02913703935354 60.20231833999296 43.290613217209625 H 0.0 **** 0.06
36834 H 86.47974766084747 59.341266637882086 43.45494375618529 H 0.0 **** 0.06
36835 H 87.55330822818553 59.51912317177906 44.863899675455315 H 0.0 **** 0.06
36836 C 83.01108769500092 64.60535113253366 50.27724499034366 C 0.0 **** -0.24
36837 H 82.90951416146044 65.60707949796398 50.693546458078686 H 0.0 **** 0.06
36838 H 82.42278105977624 63.904029600951674 50.870650731754665 H 0.0 **** 0.06
36839 H 84.05968368948123 64.30779713123451 50.297442507273985 H 0.0 **** 0.06
36840 H 82.65265399390267 64.60119548446812 49.247812679892235 H 0.0 **** 0.06
36841 C 93.82110967949001 90.7421555478084 28.069229719943635 C 0.0 **** -0.24
36842 H 93.05809979359248 91.51933163766753 28.11334439109875 H 0.0 **** 0.06
36843 H 94.80161851668629 91.20334609907923 27.948637077518356 H 0.0 **** 0.06
36844 H 93.62131747936499 90.08507369155079 27.222873784891874 H 0.0 **** 0.06
36845 H 93.80259923984445 90.16295071673942 28.99223133061392 H 0.0 **** 0.06
36846 C 94.69693767804651 16.72099975169118 22.998106153001153 C 0.0 **** -0.24
36847 H 93.62747967347462 16.919560249403503 23.074566689503815 H 0.0 **** 0.06
36848 H 95.24326773700601 17.664142313301483 23.001487528512293 H 0.0 **** 0.06
36849 H 94.9022346518592 16.184992525643537 22.072055821831775 H 0.0 **** 0.06
36850 H 95.01403019681086 16.113500282574165 23.84680496978142 H 0.0 **** 0.06
36851 C 51.42391774099282 50.329383154044194 6.7834592576266175 C 0.0 **** -0.24
36852 H 51.60710596850616 50.31590687508577 5.709835374428053 H 0.0 **** 0.06
36853 H 50.46167076173512 50.80272998758153 6.981551268151605 H 0.0 **** 0.06
36854 H 52.21503782835065 50.89080367415721 7.2794389131040305 H 0.0 **** 0.06
36855 H 51.411663672284426 49.30711978385648 7.1628790173982395 H 0.0 **** 0.06
36856 C 83.2095858757791 53.728589744055554 21.083831118715437 C 0.0 **** -0.24
36857 H 83.03147498945553 53.93155875981614 20.027679629728198 H 0.0 **** 0.06
36858 H 82.41427981647783 54.178847954208926 21.678118671490324 H 0.0 **** 0.06
36859 H 84.16889150450243 54.15285999523625 21.378536530111944 H 0.0 **** 0.06
36860 H 83.22198916853347 52.65144958450145 21.248549269870068 H 0.0 **** 0.06
36861 C 81.67890325484257 89.7018397743463 76.8396163106995 C 0.0 **** -0.24
36862 H 82.71887072245872 90.0168847326768 76.92175750400708 H 0.0 **** 0.06
36863 H 81.06364370214106 90.29915078123733 77.51187895694461 H 0.0 **** 0.06
36864 H 81.59652182254597 88.64955568365889 77.10898461499214 H 0.0 **** 0.06
36865 H 81.33787787774072 89.8421383181421 75.8138020571666 H 0.0 **** 0.06
36866 C 97.77103668947565 57.30250047266196 96.28186030495218 C 0.0 **** -0.24
36867 H 96.84544849267492 57.79855623087042 96.57590127934635 H 0.0 **** 0.06
36868 H 97.56652840056766 56.60704158442226 95.46758382906063 H 0.0 **** 0.06
36869 H 98.17653003769819 56.756651380851 97.13344515134526 H 0.0 **** 0.06
36870 H 98.49258854937663 58.048571961186894 95.95064881020801 H 0.0 **** 0.06
36871 C 44.42492682603444 75.4537606966594 93.3671831768761 C 0.0 **** -0.24
36872 H 43.89746908313441 74.51188739195828 93.21367125443476 H 0.0 **** 0.06
36873 H 45.17460348302967 75.32644838068688 94.14888734474937 H 0.0 **** 0.06
36874 H 43.71399530477959 76.22283539500114 93.66693186614657 H 0.0 **** 0.06
36875 H 44.91349222606294 75.75041457419564 92.43940887319252 H 0.0 **** 0.06
36876 C 76.15940145928477 30.1226861758891 4.1403984907554445 C 0.0 **** -0.24
36877 H 76.140282110441 30.81690713606457 4.98020534151793 H 0.0 **** 0.06
36878 H 75.65283104432939 29.19917179683131 4.42039038182088 H 0.0 **** 0.06
36879 H 77.19371705452983 29.903438602396875 3.875125760373521 H 0.0 **** 0.06
36880 H 75.65214738494615 30.570914773287143 3.2860166698439457 H 0.0 **** 0.06
36881 C 57.959945551385594 10.100268166646444 74.29327812401539 C 0.0 **** -0.24
36882 H 57.58760448183529 9.112610451782373 74.56746654118311 H 0.0 **** 0.06
36883 H 57.223338808916324 10.85567046735224 74.56901675281944 H 0.0 **** 0.06
36884 H 58.132038811878026 10.1367422252018 73.21739642318602 H 0.0 **** 0.06
36885 H 58.895423188990044 10.294675875970682 74.81774365119892 H 0.0 **** 0.06
36886 C 66.90747820615636 69.84161218411646 76.91986919769931 C 0.0 **** -0.24
36887 H 67.91822305350289 69.45260667006467 77.0477499447402 H 0.0 **** 0.06
36888 H 66.40452757009366 69.86932603817183 77.88709074414506 H 0.0 **** 0.06
36889 H 66.35289265281216 69.19582619420453 76.23939571540139 H 0.0 **** 0.06
36890 H 66.95658471797509 70.84909867122786 76.50681303952514 H 0.0 **** 0.06
36891 C 32.11632613526635 4.493256500902788 0.33317033698874354 C 0.0 **** -0.24
36892 H 31.17829991140843 5.04823228025586 0.36688378928104726 H 0.0 **** 0.06
36893 H 32.72462895133731 4.754768140030535 1.1992559163734882 H 0.0 **** 0.06
36894 H 32.655359243017074 4.746368015847395 -0.580061155250732 H 0.0 **** 0.06
36895 H 31.90538048868129 3.423257316453771 0.34552405941990116 H 0.0 **** 0.06
36896 C 94.96145200594572 21.703238189649852 25.726809056180286 C 0.0 **** -0.24
36897 H 95.9549105775452 22.07598272366942 25.476800142163 H 0.0 **** 0.06
36898 H 94.30344063003668 21.816716024597746 24.865707066669387 H 0.0 **** 0.06
36899 H 94.5625470906113 22.27128257178934 26.567569033957 H 0.0 **** 0.06
36900 H 95.02705917252234 20.649702742579297 25.99807942174499 H 0.0 **** 0.06
36901 C 89.10025177759718 14.43009470643483 64.66977397556892 C 0.0 **** -0.24
36902 H 89.2523082296078 14.741220136314041 65.7037868938539 H 0.0 **** 0.06
36903 H 89.27950197150263 15.275486274523871 64.00586486833376 H 0.0 **** 0.06
36904 H 88.07623336917149 14.079505947888947 64.54386270079954 H 0.0 **** 0.06
36905 H 89.79213500219866 13.62368532984425 64.42824272249993 H 0.0 **** 0.06
36906 C 46.378148514564074 20.95126353350173 8.955261673364845 C 0.0 **** -0.24
36907 H 47.23628133718381 21.2026393845984 9.577567901316115 H 0.0 **** 0.06
36908 H 45.90160488932759 21.86792631386882 8.607190697489017 H 0.0 **** 0.06
36909 H 45.665208366782785 20.36849008050453 9.537976251783505 H 0.0 **** 0.06
36910 H 46.71107547447431 20.367293578437085 8.097395961825129 H 0.0 **** 0.06
36911 C 76.77539468172739 71.4157801494432 99.10374231764797 C 0.0 **** -0.24
36912 H 76.77706529159246 72.30515580805067 99.73458703118786 H 0.0 **** 0.06
36913 H 77.80069094464352 71.15071429450406 98.84644383547175 H 0.0 **** 0.06
36914 H 76.21234783376048 71.61896859012228 98.19252632040406 H 0.0 **** 0.06
36915 H 76.30965283060266 70.59065869765476 99.64159167178804 H 0.0 **** 0.06
36916 C 95.20203209992187 30.672871183233326 72.99519618228027 C 0.0 **** -0.24
36917 H 95.21080601691712 31.108981562531284 71.99649172257239 H 0.0 **** 0.06
36918 H 94.86522895171059 29.636958396578734 72.93562017919271 H 0.0 **** 0.06
36919 H 94.52390530770039 31.23921546206401 73.63381899083271 H 0.0 **** 0.06
36920 H 96.20729104795107 30.70405526474258 73.41469807016699 H 0.0 **** 0.06
36921 C 10.916122524160954 73.75007405035987 28.539141611897975 C 0.0 **** -0.24
36922 H 11.27341134068962 74.70345517597377 28.14951357258255 H 0.0 **** 0.06
36923 H 11.633297648551178 72.96610482959917 28.29219008654374 H 0.0 **** 0.06
36924 H 9.950344452515594 73.51400112917224 28.092627175196753 H 0.0 **** 0.06
36925 H 10.809555868440071 73.81731748800527 29.62182334264469 H 0.0 **** 0.06
36926 C 108.04157636846547 79.66827558733685 48.325453870606424 C 0.0 **** -0.24
36927 H 107.45055646463585 80.53856016364581 48.61243320807291 H 0.0 **** 0.06
36928 H 107.5054190932273 79.09977121489118 47.56453265565641 H 0.0 **** 0.06
36929 H 108.208893206854 79.03874279066221 49.19945982099297 H 0.0 **** 0.06
36930 H 109.00129218186602 79.99692167746073 47.92581503171555 H 0.0 **** 0.06
36931 C 65.25404790888577 4.212533845879163 34.518824500750725 C 0.0 **** -0.24
36932 H 65.55767530323523 4.399658120634873 33.488554729188394 H 0.0 **** 0.06
36933 H 64.71790912957364 3.264596708117029 34.57277166925667 H 0.0 **** 0.06
36934 H 64.60262656099913 5.018335579298423 34.85781370547562 H 0.0 **** 0.06
36935 H 66.1371834626407 4.16728121997977 35.155019901881644 H 0.0 **** 0.06
36936 C 65.75736051304088 42.914129335148175 43.11907845818317 C 0.0 **** -0.24
36937 H 65.57368183967631 43.91598755833968 42.73047309640064 H 0.0 **** 0.06
36938 H 64.83291630953188 42.33814636895954 43.09316808966335 H 0.0 **** 0.06
36939 H 66.11333759407789 42.98364382663192 44.14725740485363 H 0.0 **** 0.06
36940 H 66.51263565935446 42.42065110946908 42.506159513136225 H 0.0 **** 0.06
36941 C 56.86311657619828 93.85738553926168 51.44580923638301 C 0.0 **** -0.24
36942 H 56.52691176009689 92.85017019320777 51.690424024353774 H 0.0 **** 0.06
36943 H 56.82184604978823 94.48145309982978 52.33924437706912 H 0.0 **** 0.06
36944 H 56.215192945827134 94.28016999244053 50.67754549761912 H 0.0 **** 0.06
36945 H 57.887748641919586 93.81838747126736 51.07595906698566 H 0.0 **** 0.06
36946 C 5.6995697201348605 63.36379175800988 83.26411169039636 C 0.0 **** -0.24
36947 H 5.188867322518917 63.65425559272006 84.18212022868671 H 0.0 **** 0.06
36948 H 5.047809001188881 63.55361116359023 82.41103464540343 H 0.0 **** 0.06
36949 H 5.943342242238089 62.30155526424534 83.3051667658042 H 0.0 **** 0.06
36950 H 6.616073552087244 63.94350225795682 83.15855942782942 H 0.0 **** 0.06
36951 C 42.382249801236384 59.51232737780332 14.956110183842895 C 0.0 **** -0.24
36952 H 43.209985558102915 59.12836809093029 15.55070378251395 H 0.0 **** 0.06
36953 H 42.00065436031835 58.72117697281255 14.310092492402646 H 0.0 **** 0.06
36954 H 42.729762751100196 60.345007967225456 14.343765756392642 H 0.0 **** 0.06
36955 H 41.586978855823304 59.856283914574675 15.617866117915753 H 0.0 **** 0.06
36956 C 71.72345343911479 17.254028203274203 81.13019904541443 C 0.0 **** -0.24
36957 H 72.02029861997823 17.164149457375373 82.17493948778554 H 0.0 **** 0.06
36958 H 71.08405250489184 18.12828295513505 81.00797000992628 H 0.0 **** 0.06
36959 H 71.17842837790599 16.35982615463658 80.82918044042924 H 0.0 **** 0.06
36960 H 72.61239409738627 17.364004866076897 80.50834814049495 H 0.0 **** 0.06
36961 C 38.547076585782605 1.1585571372213508 106.56719811831528 C 0.0 **** -0.24
36962 H 38.70316195694981 2.1883576230468975 106.88743575666743 H 0.0 **** 0.06
36963 H 37.7698323437356 1.1303726625693855 105.80217328920378 H 0.0 **** 0.06
36964 H 38.238241930412755 0.5557913395663263 107.4207720003467 H 0.0 **** 0.06
36965 H 39.47503843218294 0.7609722453795484 106.15789033652912 H 0.0 **** 0.06
36966 C 45.50180287373297 56.41863748294874 8.997300252146545 C 0.0 **** -0.24
36967 H 46.54829383140509 56.65339861585565 9.189343740643949 H 0.0 **** 0.06
36968 H 44.871614990276214 56.96373662198424 9.700084733430003 H 0.0 **** 0.06
36969 H 45.34142255563245 55.34728496683422 9.120157194765909 H 0.0 **** 0.06
36970 H 45.24619755684279 56.70897949955188 7.977724187554884 H 0.0 **** 0.06
36971 C 31.92363692894361 66.81154027423422 76.64467922034845 C 0.0 **** -0.24
36972 H 33.00082842773662 66.68055756415158 76.7442474567523 H 0.0 **** 0.06
36973 H 31.471098939683486 65.87073473252448 76.32839571559265 H 0.0 **** 0.06
36974 H 31.71879064766648 67.58118814074845 75.90119554488729 H 0.0 **** 0.06
36975 H 31.503616292165418 67.1120377277936 77.6043728119989 H 0.0 **** 0.06
36976 C 78.4643625880933 100.09236947971621 63.14284747127283 C 0.0 **** -0.24
36977 H 77.85842934646304 100.86979164454463 63.608537886443344 H 0.0 **** 0.06
36978 H 78.80351801336147 99.39056519771862 63.90511595133768 H 0.0 **** 0.06
36979 H 79.32741041550106 100.54740331447577 62.65723599951707 H 0.0 **** 0.06
36980 H 77.86613459847831 99.56316289219835 62.40077971951945 H 0.0 **** 0.06
36981 C 78.48836809862262 88.27721769105098 37.04334877042523 C 0.0 **** -0.24
36982 H 79.0134005647793 88.2887913757112 36.08785263987134 H 0.0 **** 0.06
36983 H 78.25707282358147 87.24775547357491 37.31739423408326 H 0.0 **** 0.06
36984 H 77.56436098126603 88.8479864107735 36.95640205913906 H 0.0 **** 0.06
36985 H 79.12087053783853 88.72494978545609 37.810120912075966 H 0.0 **** 0.06
36986 C 31.351957072519696 49.29148990788255 28.295986120970213 C 0.0 **** -0.24
36987 H 30.57285686688892 49.59345886390779 27.596599644166446 H 0.0 **** 0.06
36988 H 31.0194427184558 48.41680017905397 28.855821805423233 H 0.0 **** 0.06
36989 H 31.55519613258715 50.109529341520116 28.987515775288728 H 0.0 **** 0.06
36990 H 32.26029054292645 49.0474064172824 27.745220822629307 H 0.0 **** 0.06
36991 C 70.01254312302167 4.063038558409337 57.96049592642047 C 0.0 **** -0.24
36992 H 68.98996268088672 4.128574203158939 57.5892505002919 H 0.0 **** 0.06
36993 H 70.63282990253569 3.5504259646556164 57.22583650800274 H 0.0 **** 0.06
36994 H 70.02404091745326 3.5070004184154353 58.897751619334706 H 0.0 **** 0.06
36995 H 70.40233021971703 5.067038800529414 58.12805007455344 H 0.0 **** 0.06
36996 C 75.23008686558549 13.661534204006855 89.72741139216498 C 0.0 **** -0.24
36997 H 76.02225728748945 14.215369211021489 89.22305963245736 H 0.0 **** 0.06
36998 H 75.67293507440718 12.943563001392395 90.4186853947088 H 0.0 **** 0.06
36999 H 74.62930253828188 13.133025997465733 88.9885812131482 H 0.0 **** 0.06
37000 H 74.59858448857963 14.356417333251613 90.28144665561229 H 0.0 **** 0.06
37001 C 49.740456458305 6.181019811963424 0.6754265525062806 C 0.0 **** -0.24
37002 H 50.390036435047364 5.306791492119885 0.619420976660848 H 0.0 **** 0.06
37003 H 48.82203144250133 5.917356221255247 1.2013076583787239 H 0.0 **** 0.06
37004 H 49.4989248800766 6.5183701020740585 -0.3319671572406264 H 0.0 **** 0.06
37005 H 50.25137443542154 6.979491856920475 1.214138082188427 H 0.0 **** 0.06
37006 C 108.30708384266148 82.99573399264591 83.95836510341326 C 0.0 **** -0.24
37007 H 107.26617032260953 82.8705627271724 84.25574034876922 H 0.0 **** 0.06
37008 H 108.46654542200856 82.52504545725886 82.98760651735637 H 0.0 **** 0.06
37009 H 108.95578371376139 82.52790349909223 84.69940491696099 H 0.0 **** 0.06
37010 H 108.54015548469954 84.05851402189266 83.8904453050423 H 0.0 **** 0.06
37011 C 94.1933753530559 83.7366386894286 8.692010606000139 C 0.0 **** -0.24
37012 H 95.01214821586699 83.33514563341375 8.09452737470184 H 0.0 **** 0.06
37013 H 93.89222749260678 84.7042091290703 8.291328387236689 H 0.0 **** 0.06
37014 H 94.52407922828979 83.85745476787335 9.723992838095228 H 0.0 **** 0.06
37015 H 93.34791560066441 83.05023374504896 8.658921777911473 H 0.0 **** 0.06
37016 C 91.07365009540678 0.1045513462912595 28.225864700307397 C 0.0 **** -0.24
37017 H 91.46321747771226 -0.34483814080557806 27.312293018402926 H 0.0 **** 0.06
37018 H 91.42627120074495 1.1335855077714427 28.302727996786388 H 0.0 **** 0.06
37019 H 91.42235344114867 -0.46431935060425644 29.087909351951396 H 0.0 **** 0.06
37020 H 89.98457548503637 0.09490682036332032 28.199878597632647 H 0.0 **** 0.06
37021 C 65.30556131959986 80.06682702564359 95.40300235581839 C 0.0 **** -0.24
37022 H 64.59839140679236 79.54831054219966 96.04971263761544 H 0.0 **** 0.06
37023 H 66.03598998135939 79.35502587134016 95.01793487076309 H 0.0 **** 0.06
37024 H 65.81900341165613 80.84172783865549 95.97415463038779 H 0.0 **** 0.06
37025 H 64.76912126766831 80.52397774906069 94.57159502805382 H 0.0 **** 0.06
37026 C 60.28735499699205 34.06630646595674 69.78571397875942 C 0.0 **** -0.24
37027 H 60.903639440363335 34.92007914503582 69.5047610660452 H 0.0 **** 0.06
37028 H 60.88524069455751 33.36127457082351 70.36466619017762 H 0.0 **** 0.06
37029 H 59.916115263376895 33.574884489359064 68.8856865197732 H 0.0 **** 0.06
37030 H 59.4439844278951 34.408159397542 70.38668367774824 H 0.0 **** 0.06
37031 C 76.33841717517085 108.47464869257426 42.718182566763915 C 0.0 **** -0.24
37032 H 76.02227225985295 109.49923181594247 42.522155320553 H 0.0 **** 0.06
37033 H 76.91444283088859 108.10394797161342 41.87090915579262 H 0.0 **** 0.06
37034 H 75.45986983109097 107.8452398289727 42.86341327642867 H 0.0 **** 0.06
37035 H 76.9557075698347 108.45046787211453 43.61610946251648 H 0.0 **** 0.06
37036 C 98.41404326092146 7.16246470545417 68.39369077762603 C 0.0 **** -0.24
37037 H 98.15786493309713 6.318079160975287 67.75448303730514 H 0.0 **** 0.06
37038 H 97.51954937937313 7.755937028857332 68.58692700136652 H 0.0 **** 0.06
37039 H 99.16088913496293 7.781433311732997 67.89653590609691 H 0.0 **** 0.06
37040 H 98.8166335929576 6.794290760552485 69.33749417278449 H 0.0 **** 0.06
37041 C 44.25900722283784 94.60521506386846 24.916449030511984 C 0.0 **** -0.24
37042 H 43.849650065272634 94.48659346593256 25.919349058030548 H 0.0 **** 0.06
37043 H 43.44593485623718 94.77526295008785 24.2094440846914 H 0.0 **** 0.06
37044 H 44.80180113148622 93.70195272478807 24.636226210313367 H 0.0 **** 0.06
37045 H 44.93964207741351 95.45705380957584 24.90073722677502 H 0.0 **** 0.06
37046 C 46.01300964662536 33.030961812428956 86.21184533064212 C 0.0 **** -0.24
37047 H 46.96280211658825 33.492247729388566 86.48172013742987 H 0.0 **** 0.06
37048 H 45.96247237687933 32.911186225631866 85.12914744680944 H 0.0 **** 0.06
37049 H 45.19281022237857 33.664878298369615 86.5467223052834 H 0.0 **** 0.06
37050 H 45.93520090407722 32.05355344152758 86.68907126257656 H 0.0 **** 0.06
37051 C 61.79897636602601 30.75808980864224 58.03806296614647 C 0.0 **** -0.24
37052 H 62.69571056111943 31.31301045672369 58.31648673427256 H 0.0 **** 0.06
37053 H 61.23267149348516 30.51078047155754 58.93520770282366 H 0.0 **** 0.06
37054 H 62.085901570589044 29.84017739912602 57.52372585428474 H 0.0 **** 0.06
37055 H 61.185291030208134 31.36874664896891 57.376190342640264 H 0.0 **** 0.06
37056 C 26.79249400445883 68.77655209317169 42.485768408567424 C 0.0 **** -0.24
37057 H 27.361529321186126 67.94975713018123 42.05887048558526 H 0.0 **** 0.06
37058 H 26.070267373478597 68.38786304971417 43.20404858357989 H 0.0 **** 0.06
37059 H 26.266319328655975 69.30296603952426 41.68978699925168 H 0.0 **** 0.06
37060 H 27.47219763875016 69.46352827371402 42.9882457480694 H 0.0 **** 0.06
37061 C 24.45489984293863 53.56193673572416 63.650303196221074 C 0.0 **** -0.24
37062 H 24.345309338051834 53.899331886000766 62.61929188048383 H 0.0 **** 0.06
37063 H 25.5104979032794 53.40390743146438 63.87013565920975 H 0.0 **** 0.06
37064 H 23.910404044254676 52.6270049330023 63.785771840386104 H 0.0 **** 0.06
37065 H 24.052089776497226 54.3174872803101 64.32486697421243 H 0.0 **** 0.06
37066 C 43.431964665414235 59.71917608875174 44.67589647247786 C 0.0 **** -0.24
37067 H 42.71203641668578 60.10843997617275 45.396255298024386 H 0.0 **** 0.06
37068 H 44.3372354103121 59.409455102677896 45.199282291534885 H 0.0 **** 0.06
37069 H 43.67870655481945 60.49636075202477 43.95271786954922 H 0.0 **** 0.06
37070 H 43.001165387914305 58.86257364077488 44.15741205044681 H 0.0 **** 0.06
37071 C 40.890811822057465 65.28870299263504 46.6109269376588 C 0.0 **** -0.24
37072 H 39.86411772830772 65.19467363928828 46.96652593348466 H 0.0 **** 0.06
37073 H 41.263052835526985 66.2875240427803 46.83790046529742 H 0.0 **** 0.06
37074 H 40.918164661173684 65.12528221525656 45.53426205773303 H 0.0 **** 0.06
37075 H 41.51569827682302 64.54620315291298 47.10721593558958 H 0.0 **** 0.06
37076 C 92.6106825332951 55.406655044000445 0.643511543192858 C 0.0 **** -0.24
37077 H 92.3781095703361 54.57570767454337 1.3111643417971095 H 0.0 **** 0.06
37078 H 92.45328108050322 55.09692787811002 -0.3899925763366241 H 0.0 **** 0.06
37079 H 93.65017511474291 55.70287195536932 0.7817090194990328 H 0.0 **** 0.06
37080 H 91.95852464078754 56.249781987786776 0.8734592549043327 H 0.0 **** 0.06
37081 C 108.81388698761616 29.079835276569483 27.938600908650848 C 0.0 **** -0.24
37082 H 109.2730453889505 28.966747588559997 28.920766683192753 H 0.0 **** 0.06
37083 H 108.26662712715861 28.170955870035698 27.68709987924675 H 0.0 **** 0.06
37084 H 109.58904952428153 29.255614183418146 27.193393131042193 H 0.0 **** 0.06
37085 H 108.12566930911414 29.92492973615373 27.954714380796318 H 0.0 **** 0.06
37086 C 13.238738054635974 28.40940997223484 25.747408720896317 C 0.0 **** -0.24
37087 H 12.865045009410636 27.824263031351165 24.907782985840527 H 0.0 **** 0.06
37088 H 14.011308253577653 29.094438045666294 25.397266291827492 H 0.0 **** 0.06
37089 H 13.659135838593045 27.740685663473045 26.49832173203916 H 0.0 **** 0.06
37090 H 12.419463116962362 28.97825314844897 26.18626387387829 H 0.0 **** 0.06
37091 C 7.559445714010479 59.81937005821135 35.62684411240457 C 0.0 **** -0.24
37092 H 7.948548097031562 60.82220852105564 35.80165885341373 H 0.0 **** 0.06
37093 H 7.140162749568574 59.7625746051562 34.62147153491321 H 0.0 **** 0.06
37094 H 6.780782847493299 59.59972831801275 36.358247953884174 H 0.0 **** 0.06
37095 H 8.365907399824266 59.093036635628266 35.725429861644415 H 0.0 **** 0.06
37096 C 1.6855360065666218 4.265852042085157 72.35475735510838 C 0.0 **** -0.24
37097 H 2.0706672139960745 5.079728204372145 72.96945600669302 H 0.0 **** 0.06
37098 H 1.6619634502584972 4.578682797932231 71.31077166213475 H 0.0 **** 0.06
37099 H 0.6769517507850082 4.00989902069125 72.68120302214247 H 0.0 **** 0.06
37100 H 2.332933523396406 3.394625079455011 72.45975236307538 H 0.0 **** 0.06
37101 C 88.27615804950241 23.760451482130946 32.50630429051654 C 0.0 **** -0.24
37102 H 88.5051358580645 24.642606197137326 31.90939807764741 H 0.0 **** 0.06
37103 H 88.0275799360441 22.92916586032061 31.845896051175657 H 0.0 **** 0.06
37104 H 87.42975635066975 23.973205021871195 33.158672987175095 H 0.0 **** 0.06
37105 H 89.14414035484275 23.495863277149112 33.11086752301583 H 0.0 **** 0.06
37106 C 16.94415524982429 80.5716782943764 33.13286352439723 C 0.0 **** -0.24
37107 H 16.136124367235766 80.68028057025064 33.85577601050289 H 0.0 **** 0.06
37108 H 16.55847079584646 80.74393157832061 32.12866777228695 H 0.0 **** 0.06
37109 H 17.355155161864445 79.56348657818958 33.19659314829303 H 0.0 **** 0.06
37110 H 17.727163709114336 81.29794739893896 33.35236030283757 H 0.0 **** 0.06
37111 C 14.402740078113471 33.365631782566766 17.863070913426185 C 0.0 **** -0.24
37112 H 14.947109058140693 34.30551991085767 17.770763869190034 H 0.0 **** 0.06
37113 H 13.699204811399731 33.43457417758981 18.693418426196672 H 0.0 **** 0.06
37114 H 15.106452454574537 32.5544487333421 18.048002743627464 H 0.0 **** 0.06
37115 H 13.856973525755784 33.170721271377886 16.93995736639826 H 0.0 **** 0.06
37116 C 13.999010443783504 22.826739514299955 102.07775732574166 C 0.0 **** -0.24
37117 H 13.301200194712749 22.063214628056205 101.73403874143044 H 0.0 **** 0.06
37118 H 14.38614762848107 23.377835365633036 101.21953467016277 H 0.0 **** 0.06
37119 H 14.824263237348475 22.352913470839148 102.60788796599591 H 0.0 **** 0.06
37120 H 13.484122242979879 23.51407880964119 102.7487138657072 H 0.0 **** 0.06
37121 C 94.18775756839737 81.15923981539038 90.60578888667217 C 0.0 **** -0.24
37122 H 93.66540745872959 81.9943575405378 90.13928851039333 H 0.0 **** 0.06
37123 H 94.00314876499971 80.25024077458173 90.03317802072354 H 0.0 **** 0.06
37124 H 93.82250026924743 81.02723090804744 91.6249580034504 H 0.0 **** 0.06
37125 H 95.25734351654597 81.36571753265926 90.62658947458345 H 0.0 **** 0.06
37126 C 62.81944602399969 79.10758236655016 63.87164590936351 C 0.0 **** -0.24
37127 H 62.77464970791958 79.64912497891845 62.92646720725895 H 0.0 **** 0.06
37128 H 62.6104421502188 79.79392952701704 64.69253131210525 H 0.0 **** 0.06
37129 H 63.81465845364674 78.6805901636983 63.99925385993117 H 0.0 **** 0.06
37130 H 62.07855734963732 78.30885293249023 63.86817215568419 H 0.0 **** 0.06
37131 C 61.7362903697323 3.0195704245789443 32.76975207510557 C 0.0 **** -0.24
37132 H 60.89603169428021 2.719729238291592 32.14370856772052 H 0.0 **** 0.06
37133 H 61.494333089015626 2.8333890801479953 33.81609333940415 H 0.0 **** 0.06
37134 H 61.93514771499703 4.081491614471446 32.62535676889365 H 0.0 **** 0.06
37135 H 62.619167102617595 2.4440911752238463 32.49223964377731 H 0.0 **** 0.06
37136 C 6.69034265322162 25.194114261905707 64.47912622349105 C 0.0 **** -0.24
37137 H 5.908448700878807 25.953781443712646 64.46554277834167 H 0.0 **** 0.06
37138 H 7.217429539970624 25.232607221574813 65.43230121080404 H 0.0 **** 0.06
37139 H 7.392472489669032 25.381469436035452 63.666159041196806 H 0.0 **** 0.06
37140 H 6.240448207737245 24.20957048060848 64.35130059071327 H 0.0 **** 0.06
37141 C 34.13761219518469 14.50590269507078 104.52796845629945 C 0.0 **** -0.24
37142 H 34.451497562607756 15.44453534810187 104.9839098441794 H 0.0 **** 0.06
37143 H 34.4545552014512 14.485596053036932 103.48477543261833 H 0.0 **** 0.06
37144 H 33.05177618888163 14.422044993270365 104.58061779938652 H 0.0 **** 0.06
37145 H 34.59260108737007 13.671931343588838 105.06170314808426 H 0.0 **** 0.06
37146 C 13.033991352846982 45.85847749641151 107.9036336368675 C 0.0 **** -0.24
37147 H 13.145967973304451 46.942222453480916 107.86262146044196 H 0.0 **** 0.06
37148 H 12.057286208080285 45.61039504788534 108.32039625044513 H 0.0 **** 0.06
37149 H 13.816107446467313 45.43526412982376 108.53308154744623 H 0.0 **** 0.06
37150 H 13.11440696193354 45.446588417973985 106.8975076033164 H 0.0 **** 0.06
37151 C 80.0019898569937 9.589086071334947 38.91671346389282 C 0.0 **** -0.24
37152 H 79.6265507777558 9.426288524932232 37.905641557285904 H 0.0 **** 0.06
37153 H 80.11392950802943 10.658046578112135 39.094265554551356 H 0.0 **** 0.06
37154 H 80.96938247308907 9.09854053006697 39.028295284938196 H 0.0 **** 0.06
37155 H 79.29798520853353 9.17142986292157 39.63645342316755 H 0.0 **** 0.06
37156 C 67.1571675359941 54.386819070062785 44.87387762382491 C 0.0 **** -0.24
37157 H 67.78809956807946 54.63800822330663 45.72746577206567 H 0.0 **** 0.06
37158 H 67.47912746649268 54.95852827140457 44.00362349820031 H 0.0 **** 0.06
37159 H 66.12027355072058 54.62970597676432 45.106359196353054 H 0.0 **** 0.06
37160 H 67.24232285135665 53.320511457169964 44.66112758080391 H 0.0 **** 0.06
37161 C 72.7546243880911 81.67928787838363 12.344336107545047 C 0.0 **** -0.24
37162 H 72.36136237373947 81.12403173465535 13.196093986146451 H 0.0 **** 0.06
37163 H 72.1980881465529 81.40800788763596 11.446568040739947 H 0.0 **** 0.06
37164 H 73.8077729770888 81.4355847897468 12.206366219591132 H 0.0 **** 0.06
37165 H 72.64940777022902 82.74798533149469 12.527941719078399 H 0.0 **** 0.06
37166 C 20.178472786782017 103.07482469444231 27.668532707168424 C 0.0 **** -0.24
37167 H 20.87925417885629 102.67429126719703 26.936454674665328 H 0.0 **** 0.06
37168 H 19.384591833021805 102.34906001039656 27.84632062050386 H 0.0 **** 0.06
37169 H 19.745709918058473 104.000976347929 27.28864938372311 H 0.0 **** 0.06
37170 H 20.70404146256072 103.27593731501669 28.601716030186807 H 0.0 **** 0.06
37171 C 22.504856306856084 15.785918212954996 27.194949362071696 C 0.0 **** -0.24
37172 H 23.370213258775863 15.312191954057397 26.73163776980499 H 0.0 **** 0.06
37173 H 22.658918179471527 15.848852201988478 28.272214937701676 H 0.0 **** 0.06
37174 H 21.613521693287225 15.193257229706418 26.988231084027092 H 0.0 **** 0.06
37175 H 22.377965757915717 16.787781894549795 26.78628231799695 H 0.0 **** 0.06
37176 C 2.642547325075668 21.65176509184792 92.45646189051521 C 0.0 **** -0.24
37177 H 3.2545547965382866 22.548450725132767 92.55619460923899 H 0.0 **** 0.06
37178 H 2.366683383082375 21.514286976353617 91.41067474926228 H 0.0 **** 0.06
37179 H 1.7404802255910568 21.76029593710345 93.05893420152708 H 0.0 **** 0.06
37180 H 3.20869857837738 20.78619376858512 92.80116310711117 H 0.0 **** 0.06
37181 C 95.83620369122993 89.85257419537243 38.44455050455314 C 0.0 **** -0.24
37182 H 95.37293057849658 89.18111185177077 39.16674795364044 H 0.0 **** 0.06
37183 H 95.24021325083065 89.87094730615814 37.532196034690266 H 0.0 **** 0.06
37184 H 96.8421106330791 89.50082459700104 38.21535341037059 H 0.0 **** 0.06
37185 H 95.88940575554709 90.8564567277555 38.864152928549935 H 0.0 **** 0.06
37186 C 46.98711456362298 66.76822258812042 63.642642008618765 C 0.0 **** -0.24
37187 H 47.28581633662253 67.08566001983101 62.643193845930966 H 0.0 **** 0.06
37188 H 46.9234328609038 65.67998525584831 63.67417092455054 H 0.0 **** 0.06
37189 H 46.01327607279097 67.19656714681399 63.88369695582787 H 0.0 **** 0.06
37190 H 47.72405652204725 67.11115507473698 64.36838761674073 H 0.0 **** 0.06
37191 C 30.878412846890583 1.5913717710198192 75.09863876449386 C 0.0 **** -0.24
37192 H 31.93930942022999 1.8390318744219085 75.14253443580024 H 0.0 **** 0.06
37193 H 30.581755852902177 1.449578011382937 74.05973117084261 H 0.0 **** 0.06
37194 H 30.29652829432709 2.4030083521356813 75.53609998723714 H 0.0 **** 0.06
37195 H 30.697407419332293 0.6726121168669517 75.65745416215829 H 0.0 **** 0.06
37196 C 107.83714319808931 75.85004777653954 73.28284004204147 C 0.0 **** -0.24
37197 H 106.77622035706463 75.60684318727932 73.24278972782571 H 0.0 **** 0.06
37198 H 108.0451419759653 76.67943984146106 72.60649013317703 H 0.0 **** 0.06
37199 H 108.4217716809845 74.98029824937379 72.98231852305815 H 0.0 **** 0.06
37200 H 108.10599967612714 76.13477721736866 74.3009118903959 H 0.0 **** 0.06
37201 C 6.829614326204039 40.747198796827945 31.071891741339584 C 0.0 **** -0.24
37202 H 5.894911103869365 40.841686960366474 30.519577778123562 H 0.0 **** 0.06
37203 H 7.421028521331358 39.93505900854797 30.650273397400014 H 0.0 **** 0.06
37204 H 6.611607003614825 40.533122231843095 32.11838345878897 H 0.0 **** 0.06
37205 H 7.389160627689831 41.67943259898465 31.000970007528053 H 0.0 **** 0.06
37206 C 87.25748463637387 27.671162817623838 100.71565270111392 C 0.0 **** -0.24
37207 H 86.91581040694757 28.24950339876429 99.85737084484111 H 0.0 **** 0.06
37208 H 86.40586802908336 27.17918272178862 101.18481212849755 H 0.0 **** 0.06
37209 H 87.7363491107788 28.335887922593614 101.43497059843287 H 0.0 **** 0.06
37210 H 87.97424618283583 26.91915410115412 100.38329036904616 H 0.0 **** 0.06
37211 C 97.85383173666393 100.96316381382522 54.58685257787124 C 0.0 **** -0.24
37212 H 97.41803675227088 99.9828686281157 54.782712223990416 H 0.0 **** 0.06
37213 H 97.72441889433263 101.59900512990308 55.46273042629588 H 0.0 **** 0.06
37214 H 97.35590703231514 101.41627251480959 53.730124900344094 H 0.0 **** 0.06
37215 H 98.91708386098287 100.85092531875362 54.37222183328771 H 0.0 **** 0.06
37216 C 63.933595800162266 10.199805130889985 42.09686118909218 C 0.0 **** -0.24
37217 H 63.49499106562172 9.878495596302756 43.04168812749214 H 0.0 **** 0.06
37218 H 64.44004146103504 11.155241926254973 42.23865418198204 H 0.0 **** 0.06
37219 H 63.14699242706422 10.312327473410647 41.350542400751976 H 0.0 **** 0.06
37220 H 64.65216260469674 9.453594890734053 41.75743682073892 H 0.0 **** 0.06
37221 C 103.71390980759139 58.22034917550116 0.6963500195344068 C 0.0 **** -0.24
37222 H 104.26129156988836 58.771669130208096 1.4601938022734657 H 0.0 **** 0.06
37223 H 102.69684222264783 58.03283576877909 1.0419540693310978 H 0.0 **** 0.06
37224 H 104.21330712509871 57.270804016288174 0.5055356055610218 H 0.0 **** 0.06
37225 H 103.68340957503932 58.806465422256274 -0.22179828686574865 H 0.0 **** 0.06
37226 C 59.67299242871212 1.5281730628527157 16.371666562506654 C 0.0 **** -0.24
37227 H 59.68260590194376 1.9079315539346453 17.393331347639933 H 0.0 **** 0.06
37228 H 60.67559445218866 1.5958665191265027 15.949952656274 H 0.0 **** 0.06
37229 H 58.983769876655536 2.1223109396084965 15.770261208016692 H 0.0 **** 0.06
37230 H 59.34868778058127 0.48840377159712034 16.374843098047812 H 0.0 **** 0.06
37231 C 81.06009446516015 74.01674668515386 37.98536677749212 C 0.0 **** -0.24
37232 H 81.14611424580909 73.2100340046178 37.257160673506064 H 0.0 **** 0.06
37233 H 81.31511279601312 73.64009146641905 38.976491096821675 H 0.0 **** 0.06
37234 H 80.03596069778268 74.39153556451896 37.99178923432078 H 0.0 **** 0.06
37235 H 81.74095288154282 74.82335078729261 37.71571803847425 H 0.0 **** 0.06
37236 C 41.71667916133106 27.14224082624922 35.31915673166505 C 0.0 **** -0.24
37237 H 40.99307750247448 27.948978622526425 35.43961698228265 H 0.0 **** 0.06
37238 H 42.17312552362671 26.917309131049194 36.282973780275015 H 0.0 **** 0.06
37239 H 42.488129593226745 27.448848774818458 34.612782425331574 H 0.0 **** 0.06
37240 H 41.20972401502274 26.254837966603077 34.94030385334548 H 0.0 **** 0.06
37241 C 79.25160045998163 48.12560446151144 4.165263473412978 C 0.0 **** -0.24
37242 H 78.28054931158414 47.70387702556769 3.9035087024513473 H 0.0 **** 0.06
37243 H 79.14833697339822 49.19764627455308 4.333697071270393 H 0.0 **** 0.06
37244 H 79.9541426892618 47.95114690378665 3.3503850553252335 H 0.0 **** 0.06
37245 H 79.62181719001347 47.64834605991163 5.072678406586448 H 0.0 **** 0.06
37246 C 79.57312698298853 87.38054118099825 102.62187747627316 C 0.0 **** -0.24
37247 H 80.37877105669412 88.11283290510659 102.67195048978645 H 0.0 **** 0.06
37248 H 78.82619412296583 87.60881742956269 103.38217881062697 H 0.0 **** 0.06
37249 H 79.97803686944218 86.38311380868737 102.79766019424048 H 0.0 **** 0.06
37250 H 79.11180194143066 87.41556050830218 101.63513500909903 H 0.0 **** 0.06
37251 C 39.76042611742696 29.532991736260726 38.228346260323406 C 0.0 **** -0.24
37252 H 40.46818645542584 29.84265083575906 37.45915029837124 H 0.0 **** 0.06
37253 H 39.126526328973796 30.37800631559304 38.4997893564836 H 0.0 **** 0.06
37254 H 40.30552733939379 29.190300559728 39.10731112399384 H 0.0 **** 0.06
37255 H 39.140245934108975 28.72174718772851 37.84541056158801 H 0.0 **** 0.06
37256 C 52.092152711680434 92.69763422966547 0.6952181842549692 C 0.0 **** -0.24
37257 H 52.503228130064244 92.17941361777713 -0.1703314632204922 H 0.0 **** 0.06
37258 H 51.098019347385076 92.30767897919382 0.9144865972066043 H 0.0 **** 0.06
37259 H 52.02439539688443 93.76537356955956 0.48147623068214784 H 0.0 **** 0.06
37260 H 52.74222906755137 92.54028589448147 1.5559812786225962 H 0.0 **** 0.06
37261 C 75.97756912223645 18.515545012294908 41.55338421609571 C 0.0 **** -0.24
37262 H 76.42135833118016 17.722549104824846 42.154759689039395 H 0.0 **** 0.06
37263 H 76.41715818033822 18.503214788078203 40.555772410566306 H 0.0 **** 0.06
37264 H 76.17203997962912 19.479527677623416 42.023765318673014 H 0.0 **** 0.06
37265 H 74.90195279512386 18.356867060769645 41.47935946739014 H 0.0 **** 0.06
37266 C 101.43873197402752 108.87650765979387 35.94317575043175 C 0.0 **** -0.24
37267 H 100.51869016087011 109.39569291614042 35.67500866239523 H 0.0 **** 0.06
37268 H 101.6031585640996 108.96109485101832 37.01716911382433 H 0.0 **** 0.06
37269 H 102.27716862488887 109.32485705059342 35.409270593655016 H 0.0 **** 0.06
37270 H 101.35522424557251 107.82449305216342 35.669379080964525 H 0.0 **** 0.06
37271 C 54.51102201872183 73.33078447318867 81.30797265052422 C 0.0 **** -0.24
37272 H 55.20869865450538 74.16179358923874 81.41386432169931 H 0.0 **** 0.06
37273 H 54.92274218249128 72.44686041675183 81.79766005867556 H 0.0 **** 0.06
37274 H 54.35447842568141 73.12038848535303 80.24972290543771 H 0.0 **** 0.06
37275 H 53.56034167567671 73.59370976437208 81.77170644642818 H 0.0 **** 0.06
37276 C 72.71119952562583 47.75652111124985 15.564850619993734 C 0.0 **** -0.24
37277 H 73.26602565705957 48.08642129677293 14.687004589050275 H 0.0 **** 0.06
37278 H 72.29080518275316 48.62242695102586 16.076034073457492 H 0.0 **** 0.06
37279 H 73.38185893834174 47.22533102105427 16.240313356361 H 0.0 **** 0.06
37280 H 71.90547831847397 47.09072393229797 15.255594550301453 H 0.0 **** 0.06
37281 C 101.9545201476808 29.105181586618016 61.19967882595495 C 0.0 **** -0.24
37282 H 101.04805751116544 29.620894421137848 60.88405471067256 H 0.0 **** 0.06
37283 H 102.18360754553436 28.307697094321895 60.49234202783106 H 0.0 **** 0.06
37284 H 101.80274331860369 28.67834446920706 62.19174575822615 H 0.0 **** 0.06
37285 H 102.78247750203673 29.812588611643605 61.23093142265168 H 0.0 **** 0.06
37286 C 107.56157035622752 36.9344048832923 74.35621030431723 C 0.0 **** -0.24
37287 H 107.27632523974539 37.97670575275043 74.5042645590208 H 0.0 **** 0.06
37288 H 106.70873522648206 36.37686112965133 73.96712787065688 H 0.0 **** 0.06
37289 H 107.87413531374038 36.50541030704568 75.30787128860094 H 0.0 **** 0.06
37290 H 108.38571802909384 36.88146486750162 73.64517317007852 H 0.0 **** 0.06
37291 C 61.884943245656515 102.8772208531531 25.309283229004002 C 0.0 **** -0.24
37292 H 61.87778060310835 102.06089042557807 24.58612262611304 H 0.0 **** 0.06
37293 H 62.31735675213828 102.52735834445694 26.246911443716535 H 0.0 **** 0.06
37294 H 60.86400695515911 103.21740582467348 25.483570791970784 H 0.0 **** 0.06
37295 H 62.48115536620317 103.70150248687342 24.919207969993103 H 0.0 **** 0.06
37296 C 51.556711250400234 37.35055007155287 2.738993380664965 C 0.0 **** -0.24
37297 H 51.95646523443746 38.36367684818717 2.6924233830535798 H 0.0 **** 0.06
37298 H 50.95743578417025 37.155164712611615 1.8497884914887806 H 0.0 **** 0.06
37299 H 50.93508640246403 37.2453922736767 3.6274505751031683 H 0.0 **** 0.06
37300 H 52.37999375615398 36.637341662548586 2.786095110277131 H 0.0 **** 0.06
37301 C 10.543195432496862 4.187985450050348 77.70395720976082 C 0.0 **** -0.24
37302 H 10.888734833972986 5.198179079504499 77.92032760311808 H 0.0 **** 0.06
37303 H 10.439605441118124 3.632286535879331 78.6360825811809 H 0.0 **** 0.06
37304 H 11.266834094371362 3.6870386001239552 77.06124484565007 H 0.0 **** 0.06
37305 H 9.578469890402879 4.234285662878079 77.1986565217601 H 0.0 **** 0.06
37306 C 107.9171764835894 78.87083439310078 86.42181336091448 C 0.0 **** -0.24
37307 H 106.869911491538 79.1635883537138 86.49843600809447 H 0.0 **** 0.06
37308 H 107.98013222467623 77.822368650687 86.12857441229812 H 0.0 **** 0.06
37309 H 108.40375840406142 79.0086341687969 87.38775753855703 H 0.0 **** 0.06
37310 H 108.4127678474031 79.48839567236257 85.67363219055898 H 0.0 **** 0.06
37311 C 42.597324081158916 11.27017996876259 45.421983896875105 C 0.0 **** -0.24
37312 H 43.22355302389229 10.84528958547304 46.20730765334113 H 0.0 **** 0.06
37313 H 41.55671651456936 10.999873970627164 45.6014035835594 H 0.0 **** 0.06
37314 H 42.913984052328146 10.880158589375753 44.454191204860535 H 0.0 **** 0.06
37315 H 42.6979891136296 12.355864643320047 45.426482760425074 H 0.0 **** 0.06
37316 C 101.64396844281899 16.61340756805845 8.605041369108847 C 0.0 **** -0.24
37317 H 100.96717297204665 16.416126047620025 9.436265012885713 H 0.0 **** 0.06
37318 H 102.18956481684681 15.702875889449388 8.358196273777537 H 0.0 **** 0.06
37319 H 102.34945426290336 17.394630404727934 8.890070416487049 H 0.0 **** 0.06
37320 H 101.0693524179944 16.94012902398933 7.738931487648699 H 0.0 **** 0.06
37321 C 57.19462785751506 92.40115497308409 73.51252234175473 C 0.0 **** -0.24
37322 H 56.760254077243786 92.1160308956118 72.55451841419585 H 0.0 **** 0.06
37323 H 56.59435972310433 91.98424661616889 74.32188536697612 H 0.0 **** 0.06
37324 H 57.210624382525054 93.4884160538059 73.5948349753618 H 0.0 **** 0.06
37325 H 58.21228700281159 92.01578130316426 73.57877098801583 H 0.0 **** 0.06
37326 C 51.35649431084806 83.02046242357099 16.16594347540492 C 0.0 **** -0.24
37327 H 52.32114670529742 82.66792079971356 15.79892972112722 H 0.0 **** 0.06
37328 H 50.89085577345722 82.24139983875048 16.769654590776 H 0.0 **** 0.06
37329 H 50.71248344149791 83.25918909189375 15.319500656046998 H 0.0 **** 0.06
37330 H 51.50399090391679 83.91282497441262 16.773821481606646 H 0.0 **** 0.06
37331 C 95.54579021557613 93.4462575315923 48.23396743474688 C 0.0 **** -0.24
37332 H 94.66207386114246 92.81808090148927 48.117500957663644 H 0.0 **** 0.06
37333 H 95.64013806539744 94.10171935124075 47.36807878192893 H 0.0 **** 0.06
37334 H 96.43167268048639 92.81511046396294 48.31058691938906 H 0.0 **** 0.06
37335 H 95.44817952747755 94.0477044809004 49.1377116352668 H 0.0 **** 0.06
37336 C 81.54116302207609 6.8880844458141155 36.02915341303167 C 0.0 **** -0.24
37337 H 81.94417401925568 7.591695325055525 35.30107532353878 H 0.0 **** 0.06
37338 H 82.08806590818065 6.98403731856871 36.9673219271658 H 0.0 **** 0.06
37339 H 81.64618167785488 5.8727334856315565 35.649083301661804 H 0.0 **** 0.06
37340 H 80.48723508030415 7.106105583642403 36.19910780317452 H 0.0 **** 0.06
37341 C 105.52758888109716 100.28897586401962 97.81478638683487 C 0.0 **** -0.24
37342 H 104.7836718078127 100.07246544136251 98.58132958663333 H 0.0 **** 0.06
37343 H 105.06277689700119 100.85662016062093 97.00856145323988 H 0.0 **** 0.06
37344 H 105.92497975218726 99.35411495568479 97.41924062111065 H 0.0 **** 0.06
37345 H 106.33864836711143 100.87319789276665 98.25083690293461 H 0.0 **** 0.06
37346 C 30.96523157548944 69.10931397360395 59.819916012180116 C 0.0 **** -0.24
37347 H 31.16246666725573 69.62660135427274 58.88036664992668 H 0.0 **** 0.06
37348 H 30.83276207245109 68.04449579180033 59.626186886475296 H 0.0 **** 0.06
37349 H 30.060477900215233 69.51209145248498 60.27301848871036 H 0.0 **** 0.06
37350 H 31.806421693857573 69.25376331949576 60.497182863362454 H 0.0 **** 0.06
37351 C 54.40728274797266 78.45112088703766 20.864482059030024 C 0.0 **** -0.24
37352 H 53.76681475556052 78.57182957649059 19.990448846782442 H 0.0 **** 0.06
37353 H 53.81096450869234 78.09601146358331 21.70505372519142 H 0.0 **** 0.06
37354 H 54.858432744175275 79.41059268255901 21.118272206847536 H 0.0 **** 0.06
37355 H 55.191494529404224 77.72840355555132 20.642957074633017 H 0.0 **** 0.06
37356 C 26.36971682223608 13.567432554244533 27.688989813108606 C 0.0 **** -0.24
37357 H 27.148582488341102 12.896618735830984 27.326523326821246 H 0.0 **** 0.06
37358 H 26.67818826927623 14.600749195959963 27.5278253450484 H 0.0 **** 0.06
37359 H 26.209645198547882 13.397069613263128 28.75351900264971 H 0.0 **** 0.06
37360 H 25.444116899908874 13.374415578969675 27.1468845808902 H 0.0 **** 0.06
37361 C 18.399923371504688 64.5383962974937 45.77510258926642 C 0.0 **** -0.24
37362 H 18.355239352815406 65.58427837539182 45.4708232796741 H 0.0 **** 0.06
37363 H 19.029713148548435 63.984298095230145 45.07955974408796 H 0.0 **** 0.06
37364 H 17.395202997840887 64.11580272781208 45.77218596817129 H 0.0 **** 0.06
37365 H 18.819590032253522 64.46953896549144 46.77921487112584 H 0.0 **** 0.06
37366 C 22.215571076285073 97.36610366661074 37.445751160546905 C 0.0 **** -0.24
37367 H 21.745358971327278 96.56588934270695 36.874118865603236 H 0.0 **** 0.06
37368 H 23.20136377508493 97.57653412175512 37.03083834110643 H 0.0 **** 0.06
37369 H 22.3175071604515 97.05776956992213 38.486048215193165 H 0.0 **** 0.06
37370 H 21.599208897887138 98.26278190046276 37.39073646484084 H 0.0 **** 0.06
37371 C 12.858674096131892 80.60858151444087 76.08189543613372 C 0.0 **** -0.24
37372 H 12.301033061248816 80.87471732348813 76.97989213713976 H 0.0 **** 0.06
37373 H 13.827018265970338 80.19485917774603 76.36545904060767 H 0.0 **** 0.06
37374 H 13.008151145178203 81.49904968608821 75.47128352052601 H 0.0 **** 0.06
37375 H 12.29890161222113 79.86741850913138 75.51264420829449 H 0.0 **** 0.06
37376 C 3.815046528250882 8.106488074217225 80.58058632585981 C 0.0 **** -0.24
37377 H 4.593913469042397 7.427075296356847 80.2349848096384 H 0.0 **** 0.06
37378 H 4.258806372934851 8.875986360447385 81.21262783722712 H 0.0 **** 0.06
37379 H 3.0742461666115064 7.54840600916819 81.15218324658379 H 0.0 **** 0.06
37380 H 3.3342126374832937 8.573333202852368 79.72090948947402 H 0.0 **** 0.06
37381 C 0.13326325501971326 24.05959948590484 77.68392989835127 C 0.0 **** -0.24
37382 H -0.5647653994650028 23.30282172030286 78.04187301285197 H 0.0 **** 0.06
37383 H -0.4239658689133563 24.893644084130074 77.25657968171151 H 0.0 **** 0.06
37384 H 0.7808277866158733 23.625420432590687 76.9222248454555 H 0.0 **** 0.06
37385 H 0.7396338369232751 24.41710498348675 78.51701661088657 H 0.0 **** 0.06
37386 C 78.8329009140325 76.02558835092657 8.093753457355149 C 0.0 **** -0.24
37387 H 78.17778402805027 75.16611452296252 8.237184573536837 H 0.0 **** 0.06
37388 H 79.2052716074096 76.36428040426722 9.061051585851658 H 0.0 **** 0.06
37389 H 78.27575151101439 76.83155400316446 7.61534796890291 H 0.0 **** 0.06
37390 H 79.67306852498879 75.73970813375911 7.460765496016563 H 0.0 **** 0.06
37391 C 26.89704462504772 63.48215787156715 51.64713787375237 C 0.0 **** -0.24
37392 H 27.350949809005165 63.82590147632021 52.57719074067707 H 0.0 **** 0.06
37393 H 27.09720068185291 64.20488562087274 50.85617579343837 H 0.0 **** 0.06
37394 H 25.820351979981933 63.381422153111146 51.784346230913755 H 0.0 **** 0.06
37395 H 27.31968559878478 62.515452526498564 51.37308814529491 H 0.0 **** 0.06
37396 C 39.855615080485336 67.77308657617044 62.132129996064435 C 0.0 **** -0.24
37397 H 38.98592468312978 68.13652781418727 61.58460744036739 H 0.0 **** 0.06
37398 H 40.76185073388638 68.01911778955082 61.57824420483284 H 0.0 **** 0.06
37399 H 39.78422288721569 66.69208305747148 62.25147571671636 H 0.0 **** 0.06
37400 H 39.889707129575896 68.24646191142324 63.114022276176115 H 0.0 **** 0.06
37401 C 6.130253060286265 92.91445353130541 105.41948298458541 C 0.0 **** -0.24
37402 H 5.802237862579972 91.88065109146281 105.53752330147952 H 0.0 **** 0.06
37403 H 5.6306596272116565 93.35860390713047 104.55880959426855 H 0.0 **** 0.06
37404 H 7.209304282483757 92.93677262520987 105.26652812750284 H 0.0 **** 0.06
37405 H 5.879289356962346 93.47893894424188 106.31801420009425 H 0.0 **** 0.06
37406 C 96.00509015427241 96.14040691533414 64.44493039039338 C 0.0 **** -0.24
37407 H 95.05263460446767 96.60266766386738 64.70451524395297 H 0.0 **** 0.06
37408 H 95.82974796521273 95.13287604920491 64.06705268368023 H 0.0 **** 0.06
37409 H 96.63812346599292 96.09161138704336 65.33152203159085 H 0.0 **** 0.06
37410 H 96.50082914007695 96.73563715652917 63.67793319805101 H 0.0 **** 0.06
37411 C 8.329432505601801 75.9643165277912 30.06107384827152 C 0.0 **** -0.24
37412 H 7.810138170894987 75.29595199634036 30.74782424360083 H 0.0 **** 0.06
37413 H 9.404290224682683 75.90111848457309 30.235873281523794 H 0.0 **** 0.06
37414 H 7.9930943372050365 76.98732477599094 30.225617327666157 H 0.0 **** 0.06
37415 H 8.110925491048562 75.67073724139505 29.034015045533693 H 0.0 **** 0.06
37416 C 100.77771024787955 4.827343524416506 105.04167480266742 C 0.0 **** -0.24
37417 H 100.46315015494838 5.5899581897275255 104.32956549922305 H 0.0 **** 0.06
37418 H 101.73453761043044 4.408902438056089 104.72758345219503 H 0.0 **** 0.06
37419 H 100.02951305693165 4.03598793788413 105.0805609868365 H 0.0 **** 0.06
37420 H 100.88407923339798 5.274999661113725 106.02975247210411 H 0.0 **** 0.06
37421 C 38.706292116629186 65.4971619861953 92.05508452753863 C 0.0 **** -0.24
37422 H 38.646849462732746 66.37249320840434 91.40717808681691 H 0.0 **** 0.06
37423 H 37.83718426699926 64.86138620768702 91.88646494675781 H 0.0 **** 0.06
37424 H 38.7273594196858 65.81702359652212 93.09661635836916 H 0.0 **** 0.06
37425 H 39.614772227036724 64.93869790991897 91.82741442657928 H 0.0 **** 0.06
37426 C 63.66946515169204 50.04668838702017 4.524495874697806 C 0.0 **** -0.24
37427 H 62.75828622580396 50.24580811294379 3.9604735711902492 H 0.0 **** 0.06
37428 H 64.47606604043429 49.79793634138281 3.834305809437353 H 0.0 **** 0.06
37429 H 63.500607929880786 49.211503800345156 5.203561234028456 H 0.0 **** 0.06
37430 H 63.94170007516428 50.9323372397788 5.098276407590646 H 0.0 **** 0.06
37431 C 67.59075995227516 27.946421259246932 94.57756289400697 C 0.0 **** -0.24
37432 H 68.4283661055465 28.631394071864577 94.71102099645026 H 0.0 **** 0.06
37433 H 67.4262259437545 27.778718410209393 93.51232241952073 H 0.0 **** 0.06
37434 H 66.69375141328959 28.379436704817465 95.02038698326811 H 0.0 **** 0.06
37435 H 67.8166462644412 26.998868128421265 95.06486794695968 H 0.0 **** 0.06
37436 C 89.07597994585973 66.98262631039645 60.57153797560477 C 0.0 **** -0.24
37437 H 89.53613071240456 66.50244273884053 61.43527976918952 H 0.0 **** 0.06
37438 H 88.97495366480496 68.05163082543814 60.761082008461244 H 0.0 **** 0.06
37439 H 88.09036689775506 66.54954250142765 60.39762635006696 H 0.0 **** 0.06
37440 H 89.70164125768628 66.82707130264907 59.69269531540522 H 0.0 **** 0.06
37441 C 49.7291411648593 23.943454344856136 93.46985076267116 C 0.0 **** -0.24
37442 H 49.89157055162843 24.386216716262574 94.45224071113701 H 0.0 **** 0.06
37443 H 48.659863650750935 23.914250948977475 93.25660512725541 H 0.0 **** 0.06
37444 H 50.13033089044657 22.92973076797998 93.45843990654502 H 0.0 **** 0.06
37445 H 50.23502637097357 24.542737266926867 92.71253113056382 H 0.0 **** 0.06
37446 C 31.390419695598048 86.5367263546618 44.96005111762753 C 0.0 **** -0.24
37447 H 30.651538647324685 87.08273444182714 45.54764442059519 H 0.0 **** 0.06
37448 H 31.96767538929697 87.23882600118071 44.359388352536996 H 0.0 **** 0.06
37449 H 30.88172374501167 85.82900406766458 44.30445938179918 H 0.0 **** 0.06
37450 H 32.058116400538985 85.99562002895289 45.62997416067196 H 0.0 **** 0.06
37451 C 85.93277930706604 83.96052272197439 86.7423612671169 C 0.0 **** -0.24
37452 H 85.1100738213875 84.39691907200832 87.30794302653376 H 0.0 **** 0.06
37453 H 85.54369683115503 83.20167788406681 86.06233973847704 H 0.0 **** 0.06
37454 H 86.64373624116259 83.503152020674 87.42938388007192 H 0.0 **** 0.06
37455 H 86.43293137275255 84.74089452592358 86.16772078505197 H 0.0 **** 0.06
37456 C 88.40772159943546 25.191828555583044 65.3434487120143 C 0.0 **** -0.24
37457 H 87.55494955790965 25.866382398835526 65.42165250846227 H 0.0 **** 0.06
37458 H 88.37989446621494 24.474633414026187 66.16362529638883 H 0.0 **** 0.06
37459 H 89.33156559665602 25.768305973222766 65.39520717435425 H 0.0 **** 0.06
37460 H 88.3634192162538 24.65995846196924 64.39343853875454 H 0.0 **** 0.06
37461 C 102.89296999888003 57.63304737265452 106.48905688933604 C 0.0 **** -0.24
37462 H 102.10168584309062 58.11314738327002 107.0648843226506 H 0.0 **** 0.06
37463 H 102.75008390619263 56.55277721845445 106.50696786038745 H 0.0 **** 0.06
37464 H 103.8609048194283 57.88052692255234 106.92412456850607 H 0.0 **** 0.06
37465 H 102.85656975471022 57.98691447053023 105.45808985355904 H 0.0 **** 0.06
37466 C 88.13446596175422 85.15420086456874 18.29967829309878 C 0.0 **** -0.24
37467 H 89.01309483035703 85.63065958085586 18.735344795325176 H 0.0 **** 0.06
37468 H 87.62623252459844 85.86182933092404 17.644661812796343 H 0.0 **** 0.06
37469 H 87.45833654864947 84.84298030859304 19.09501820151263 H 0.0 **** 0.06
37470 H 88.44314872388118 84.2822887207475 17.723060547735983 H 0.0 **** 0.06
37471 C 18.7363730718572 24.51206717170726 62.087386835516384 C 0.0 **** -0.24
37472 H 17.916534294907535 25.103524437586273 62.494552069619715 H 0.0 **** 0.06
37473 H 18.969903946746513 24.859055271691105 61.08132948026639 H 0.0 **** 0.06
37474 H 18.445181806006133 23.46258944619639 62.05221610191683 H 0.0 **** 0.06
37475 H 19.61446517956699 24.623699353836074 62.72374945822165 H 0.0 **** 0.06
37476 C 99.95155748005016 0.923072572955391 90.59394879713531 C 0.0 **** -0.24
37477 H 100.72251185798197 1.0747762869098665 89.83891822714976 H 0.0 **** 0.06
37478 H 99.99034310043113 -0.10715368254994928 90.95121833239618 H 0.0 **** 0.06
37479 H 98.97202542856944 1.1199470474140298 90.15773292651009 H 0.0 **** 0.06
37480 H 100.12060496318784 1.6031681780691542 91.42773695420043 H 0.0 **** 0.06
37481 C 48.225468422106914 33.338208406774356 32.773529049199055 C 0.0 **** -0.24
37482 H 49.208381412809594 33.64546144525775 32.41676936623779 H 0.0 **** 0.06
37483 H 48.31950935343834 32.41515319014479 33.345953939935924 H 0.0 **** 0.06
37484 H 47.56615284366746 33.17370171043606 31.921744253431598 H 0.0 **** 0.06
37485 H 47.81056676781286 34.12005686820697 33.4100237360681 H 0.0 **** 0.06
37486 C 32.737986133744464 25.032989403019997 93.35500573436826 C 0.0 **** -0.24
37487 H 33.607062420467024 24.48719099308707 93.72174044251744 H 0.0 **** 0.06
37488 H 32.853249482601484 26.093651516093857 93.58148129349007 H 0.0 **** 0.06
37489 H 31.83938913458792 24.65332934914413 93.8398381481905 H 0.0 **** 0.06
37490 H 32.653521883733674 24.89783309436615 92.27636007223015 H 0.0 **** 0.06
37491 C 68.64167853129953 80.87340986079712 5.708456469005284 C 0.0 **** -0.24
37492 H 69.69719954865869 80.99688411093649 5.950915450052634 H 0.0 **** 0.06
37493 H 68.08413732631351 80.64758900902166 6.617628415197075 H 0.0 **** 0.06
37494 H 68.52626287834846 80.05390745607957 4.997909509083485 H 0.0 **** 0.06
37495 H 68.26036237487506 81.79349776031009 5.266214361587373 H 0.0 **** 0.06
37496 C 2.0101268183072563 49.45289976843319 90.41999148434456 C 0.0 **** -0.24
37497 H 1.3640783394430684 49.67465666058539 91.26940369567694 H 0.0 **** 0.06
37498 H 1.3974668806922494 49.2458732807171 89.54265649190819 H 0.0 **** 0.06
37499 H 2.623274988766795 48.58097873314897 90.64900440853069 H 0.0 **** 0.06
37500 H 2.6545110711329016 50.30836430764867 90.22018116350151 H 0.0 **** 0.06
@<TRIPOS>BOND
1 1 2 28
2 1 3 28
3 1 4 28
4 1 5 28
5 6 7 28
6 6 8 28
7 6 9 28
8 6 10 28
9 11 12 28
10 11 13 28
11 11 14 28
12 11 15 28
13 16 17 28
14 16 18 28
15 16 19 28
16 16 20 28
17 21 22 28
18 21 23 28
19 21 24 28
20 21 25 28
21 26 27 28
22 26 28 28
23 26 29 28
24 26 30 28
25 31 32 28
26 31 33 28
27 31 34 28
28 31 35 28
29 36 37 28
30 36 38 28
31 36 39 28
32 36 40 28
33 41 42 28
34 41 43 28
35 41 44 28
36 41 45 28
37 46 47 28
38 46 48 28
39 46 49 28
40 46 50 28
41 51 52 28
42 51 53 28
43 51 54 28
44 51 55 28
45 56 57 28
46 56 58 28
47 56 59 28
48 56 60 28
49 61 62 28
50 61 63 28
51 61 64 28
52 61 65 28
53 66 67 28
54 66 68 28
55 66 69 28
56 66 70 28
57 71 72 28
58 71 73 28
59 71 74 28
60 71 75 28
61 76 77 28
62 76 78 28
63 76 79 28
64 76 80 28
65 81 82 28
66 81 83 28
67 81 84 28
68 81 85 28
69 86 87 28
70 86 88 28
71 86 89 28
72 86 90 28
73 91 92 28
74 91 93 28
75 91 94 28
76 91 95 28
77 96 97 28
78 96 98 28
79 96 99 28
80 96 100 28
81 101 102 28
82 101 103 28
83 101 104 28
84 101 105 28
85 106 107 28
86 106 108 28
87 106 109 28
88 106 110 28
89 111 112 28
90 111 113 28
91 111 114 28
92 111 115 28
93 116 117 28
94 116 118 28
95 116 119 28
96 116 120 28
97 121 122 28
98 121 123 28
99 121 124 28
100 121 125 28
101 126 127 28
102 126 128 28
103 126 129 28
104 126 130 28
105 131 132 28
106 131 133 28
107 131 134 28
108 131 135 28
109 136 137 28
110 136 138 28
111 136 139 28
112 136 140 28
113 141 142 28
114 141 143 28
115 141 144 28
116 141 145 28
117 146 147 28
118 146 148 28
119 146 149 28
120 146 150 28
121 151 152 28
122 151 153 28
123 151 154 28
124 151 155 28
125 156 157 28
126 156 158 28
127 156 159 28
128 156 160 28
129 161 162 28
130 161 163 28
131 161 164 28
132 161 165 28
133 166 167 28
134 166 168 28
135 166 169 28
136 166 170 28
137 171 172 28
138 171 173 28
139 171 174 28
140 171 175 28
141 176 177 28
142 176 178 28
143 176 179 28
144 176 180 28
145 181 182 28
146 181 183 28
147 181 184 28
148 181 185 28
149 186 187 28
150 186 188 28
151 186 189 28
152 186 190 28
153 191 192 28
154 191 193 28
155 191 194 28
156 191 195 28
157 196 197 28
158 196 198 28
159 196 199 28
160 196 200 28
161 201 202 28
162 201 203 28
163 201 204 28
164 201 205 28
165 206 207 28
166 206 208 28
167 206 209 28
168 206 210 28
169 211 212 28
170 211 213 28
171 211 214 28
172 211 215 28
173 216 217 28
174 216 218 28
175 216 219 28
176 216 220 28
177 221 222 28
178 221 223 28
179 221 224 28
180 221 225 28
181 226 227 28
182 226 228 28
183 226 229 28
184 226 230 28
185 231 232 28
186 231 233 28
187 231 234 28
188 231 235 28
189 236 237 28
190 236 238 28
191 236 239 28
192 236 240 28
193 241 242 28
194 241 243 28
195 241 244 28
196 241 245 28
197 246 247 28
198 246 248 28
199 246 249 28
200 246 250 28
201 251 252 28
202 251 253 28
203 251 254 28
204 251 255 28
205 256 257 28
206 256 258 28
207 256 259 28
208 256 260 28
209 261 262 28
210 261 263 28
211 261 264 28
212 261 265 28
213 266 267 28
214 266 268 28
215 266 269 28
216 266 270 28
217 271 272 28
218 271 273 28
219 271 274 28
220 271 275 28
221 276 277 28
222 276 278 28
223 276 279 28
224 276 280 28
225 281 282 28
226 281 283 28
227 281 284 28
228 281 285 28
229 286 287 28
230 286 288 28
231 286 289 28
232 286 290 28
233 291 292 28
234 291 293 28
235 291 294 28
236 291 295 28
237 296 297 28
238 296 298 28
239 296 299 28
240 296 300 28
241 301 302 28
242 301 303 28
243 301 304 28
244 301 305 28
245 306 307 28
246 306 308 28
247 306 309 28
248 306 310 28
249 311 312 28
250 311 313 28
251 311 314 28
252 311 315 28
253 316 317 28
254 316 318 28
255 316 319 28
256 316 320 28
257 321 322 28
258 321 323 28
259 321 324 28
260 321 325 28
261 326 327 28
262 326 328 28
263 326 329 28
264 326 330 28
265 331 332 28
266 331 333 28
267 331 334 28
268 331 335 28
269 336 337 28
270 336 338 28
271 336 339 28
272 336 340 28
273 341 342 28
274 341 343 28
275 341 344 28
276 341 345 28
277 346 347 28
278 346 348 28
279 346 349 28
280 346 350 28
281 351 352 28
282 351 353 28
283 351 354 28
284 351 355 28
285 356 357 28
286 356 358 28
287 356 359 28
288 356 360 28
289 361 362 28
290 361 363 28
291 361 364 28
292 361 365 28
293 366 367 28
294 366 368 28
295 366 369 28
296 366 370 28
297 371 372 28
298 371 373 28
299 371 374 28
300 371 375 28
301 376 377 28
302 376 378 28
303 376 379 28
304 376 380 28
305 381 382 28
306 381 383 28
307 381 384 28
308 381 385 28
309 386 387 28
310 386 388 28
311 386 389 28
312 386 390 28
313 391 392 28
314 391 393 28
315 391 394 28
316 391 395 28
317 396 397 28
318 396 398 28
319 396 399 28
320 396 400 28
321 401 402 28
322 401 403 28
323 401 404 28
324 401 405 28
325 406 407 28
326 406 408 28
327 406 409 28
328 406 410 28
329 411 412 28
330 411 413 28
331 411 414 28
332 411 415 28
333 416 417 28
334 416 418 28
335 416 419 28
336 416 420 28
337 421 422 28
338 421 423 28
339 421 424 28
340 421 425 28
341 426 427 28
342 426 428 28
343 426 429 28
344 426 430 28
345 431 432 28
346 431 433 28
347 431 434 28
348 431 435 28
349 436 437 28
350 436 438 28
351 436 439 28
352 436 440 28
353 441 442 28
354 441 443 28
355 441 444 28
356 441 445 28
357 446 447 28
358 446 448 28
359 446 449 28
360 446 450 28
361 451 452 28
362 451 453 28
363 451 454 28
364 451 455 28
365 456 457 28
366 456 458 28
367 456 459 28
368 456 460 28
369 461 462 28
370 461 463 28
371 461 464 28
372 461 465 28
373 466 467 28
374 466 468 28
375 466 469 28
376 466 470 28
377 471 472 28
378 471 473 28
379 471 474 28
380 471 475 28
381 476 477 28
382 476 478 28
383 476 479 28
384 476 480 28
385 481 482 28
386 481 483 28
387 481 484 28
388 481 485 28
389 486 487 28
390 486 488 28
391 486 489 28
392 486 490 28
393 491 492 28
394 491 493 28
395 491 494 28
396 491 495 28
397 496 497 28
398 496 498 28
399 496 499 28
400 496 500 28
401 501 502 28
402 501 503 28
403 501 504 28
404 501 505 28
405 506 507 28
406 506 508 28
407 506 509 28
408 506 510 28
409 511 512 28
410 511 513 28
411 511 514 28
412 511 515 28
413 516 517 28
414 516 518 28
415 516 519 28
416 516 520 28
417 521 522 28
418 521 523 28
419 521 524 28
420 521 525 28
421 526 527 28
422 526 528 28
423 526 529 28
424 526 530 28
425 531 532 28
426 531 533 28
427 531 534 28
428 531 535 28
429 536 537 28
430 536 538 28
431 536 539 28
432 536 540 28
433 541 542 28
434 541 543 28
435 541 544 28
436 541 545 28
437 546 547 28
438 546 548 28
439 546 549 28
440 546 550 28
441 551 552 28
442 551 553 28
443 551 554 28
444 551 555 28
445 556 557 28
446 556 558 28
447 556 559 28
448 556 560 28
449 561 562 28
450 561 563 28
451 561 564 28
452 561 565 28
453 566 567 28
454 566 568 28
455 566 569 28
456 566 570 28
457 571 572 28
458 571 573 28
459 571 574 28
460 571 575 28
461 576 577 28
462 576 578 28
463 576 579 28
464 576 580 28
465 581 582 28
466 581 583 28
467 581 584 28
468 581 585 28
469 586 587 28
470 586 588 28
471 586 589 28
472 586 590 28
473 591 592 28
474 591 593 28
475 591 594 28
476 591 595 28
477 596 597 28
478 596 598 28
479 596 599 28
480 596 600 28
481 601 602 28
482 601 603 28
483 601 604 28
484 601 605 28
485 606 607 28
486 606 608 28
487 606 609 28
488 606 610 28
489 611 612 28
490 611 613 28
491 611 614 28
492 611 615 28
493 616 617 28
494 616 618 28
495 616 619 28
496 616 620 28
497 621 622 28
498 621 623 28
499 621 624 28
500 621 625 28
501 626 627 28
502 626 628 28
503 626 629 28
504 626 630 28
505 631 632 28
506 631 633 28
507 631 634 28
508 631 635 28
509 636 637 28
510 636 638 28
511 636 639 28
512 636 640 28
513 641 642 28
514 641 643 28
515 641 644 28
516 641 645 28
517 646 647 28
518 646 648 28
519 646 649 28
520 646 650 28
521 651 652 28
522 651 653 28
523 651 654 28
524 651 655 28
525 656 657 28
526 656 658 28
527 656 659 28
528 656 660 28
529 661 662 28
530 661 663 28
531 661 664 28
532 661 665 28
533 666 667 28
534 666 668 28
535 666 669 28
536 666 670 28
537 671 672 28
538 671 673 28
539 671 674 28
540 671 675 28
541 676 677 28
542 676 678 28
543 676 679 28
544 676 680 28
545 681 682 28
546 681 683 28
547 681 684 28
548 681 685 28
549 686 687 28
550 686 688 28
551 686 689 28
552 686 690 28
553 691 692 28
554 691 693 28
555 691 694 28
556 691 695 28
557 696 697 28
558 696 698 28
559 696 699 28
560 696 700 28
561 701 702 28
562 701 703 28
563 701 704 28
564 701 705 28
565 706 707 28
566 706 708 28
567 706 709 28
568 706 710 28
569 711 712 28
570 711 713 28
571 711 714 28
572 711 715 28
573 716 717 28
574 716 718 28
575 716 719 28
576 716 720 28
577 721 722 28
578 721 723 28
579 721 724 28
580 721 725 28
581 726 727 28
582 726 728 28
583 726 729 28
584 726 730 28
585 731 732 28
586 731 733 28
587 731 734 28
588 731 735 28
589 736 737 28
590 736 738 28
591 736 739 28
592 736 740 28
593 741 742 28
594 741 743 28
595 741 744 28
596 741 745 28
597 746 747 28
598 746 748 28
599 746 749 28
600 746 750 28
601 751 752 28
602 751 753 28
603 751 754 28
604 751 755 28
605 756 757 28
606 756 758 28
607 756 759 28
608 756 760 28
609 761 762 28
610 761 763 28
611 761 764 28
612 761 765 28
613 766 767 28
614 766 768 28
615 766 769 28
616 766 770 28
617 771 772 28
618 771 773 28
619 771 774 28
620 771 775 28
621 776 777 28
622 776 778 28
623 776 779 28
624 776 780 28
625 781 782 28
626 781 783 28
627 781 784 28
628 781 785 28
629 786 787 28
630 786 788 28
631 786 789 28
632 786 790 28
633 791 792 28
634 791 793 28
635 791 794 28
636 791 795 28
637 796 797 28
638 796 798 28
639 796 799 28
640 796 800 28
641 801 802 28
642 801 803 28
643 801 804 28
644 801 805 28
645 806 807 28
646 806 808 28
647 806 809 28
648 806 810 28
649 811 812 28
650 811 813 28
651 811 814 28
652 811 815 28
653 816 817 28
654 816 818 28
655 816 819 28
656 816 820 28
657 821 822 28
658 821 823 28
659 821 824 28
660 821 825 28
661 826 827 28
662 826 828 28
663 826 829 28
664 826 830 28
665 831 832 28
666 831 833 28
667 831 834 28
668 831 835 28
669 836 837 28
670 836 838 28
671 836 839 28
672 836 840 28
673 841 842 28
674 841 843 28
675 841 844 28
676 841 845 28
677 846 847 28
678 846 848 28
679 846 849 28
680 846 850 28
681 851 852 28
682 851 853 28
683 851 854 28
684 851 855 28
685 856 857 28
686 856 858 28
687 856 859 28
688 856 860 28
689 861 862 28
690 861 863 28
691 861 864 28
692 861 865 28
693 866 867 28
694 866 868 28
695 866 869 28
696 866 870 28
697 871 872 28
698 871 873 28
699 871 874 28
700 871 875 28
701 876 877 28
702 876 878 28
703 876 879 28
704 876 880 28
705 881 882 28
706 881 883 28
707 881 884 28
708 881 885 28
709 886 887 28
710 886 888 28
711 886 889 28
712 886 890 28
713 891 892 28
714 891 893 28
715 891 894 28
716 891 895 28
717 896 897 28
718 896 898 28
719 896 899 28
720 896 900 28
721 901 902 28
722 901 903 28
723 901 904 28
724 901 905 28
725 906 907 28
726 906 908 28
727 906 909 28
728 906 910 28
729 911 912 28
730 911 913 28
731 911 914 28
732 911 915 28
733 916 917 28
734 916 918 28
735 916 919 28
736 916 920 28
737 921 922 28
738 921 923 28
739 921 924 28
740 921 925 28
741 926 927 28
742 926 928 28
743 926 929 28
744 926 930 28
745 931 932 28
746 931 933 28
747 931 934 28
748 931 935 28
749 936 937 28
750 936 938 28
751 936 939 28
752 936 940 28
753 941 942 28
754 941 943 28
755 941 944 28
756 941 945 28
757 946 947 28
758 946 948 28
759 946 949 28
760 946 950 28
761 951 952 28
762 951 953 28
763 951 954 28
764 951 955 28
765 956 957 28
766 956 958 28
767 956 959 28
768 956 960 28
769 961 962 28
770 961 963 28
771 961 964 28
772 961 965 28
773 966 967 28
774 966 968 28
775 966 969 28
776 966 970 28
777 971 972 28
778 971 973 28
779 971 974 28
780 971 975 28
781 976 977 28
782 976 978 28
783 976 979 28
784 976 980 28
785 981 982 28
786 981 983 28
787 981 984 28
788 981 985 28
789 986 987 28
790 986 988 28
791 986 989 28
792 986 990 28
793 991 992 28
794 991 993 28
795 991 994 28
796 991 995 28
797 996 997 28
798 996 998 28
799 996 999 28
800 996 1000 28
801 1001 1002 28
802 1001 1003 28
803 1001 1004 28
804 1001 1005 28
805 1006 1007 28
806 1006 1008 28
807 1006 1009 28
808 1006 1010 28
809 1011 1012 28
810 1011 1013 28
811 1011 1014 28
812 1011 1015 28
813 1016 1017 28
814 1016 1018 28
815 1016 1019 28
816 1016 1020 28
817 1021 1022 28
818 1021 1023 28
819 1021 1024 28
820 1021 1025 28
821 1026 1027 28
822 1026 1028 28
823 1026 1029 28
824 1026 1030 28
825 1031 1032 28
826 1031 1033 28
827 1031 1034 28
828 1031 1035 28
829 1036 1037 28
830 1036 1038 28
831 1036 1039 28
832 1036 1040 28
833 1041 1042 28
834 1041 1043 28
835 1041 1044 28
836 1041 1045 28
837 1046 1047 28
838 1046 1048 28
839 1046 1049 28
840 1046 1050 28
841 1051 1052 28
842 1051 1053 28
843 1051 1054 28
844 1051 1055 28
845 1056 1057 28
846 1056 1058 28
847 1056 1059 28
848 1056 1060 28
849 1061 1062 28
850 1061 1063 28
851 1061 1064 28
852 1061 1065 28
853 1066 1067 28
854 1066 1068 28
855 1066 1069 28
856 1066 1070 28
857 1071 1072 28
858 1071 1073 28
859 1071 1074 28
860 1071 1075 28
861 1076 1077 28
862 1076 1078 28
863 1076 1079 28
864 1076 1080 28
865 1081 1082 28
866 1081 1083 28
867 1081 1084 28
868 1081 1085 28
869 1086 1087 28
870 1086 1088 28
871 1086 1089 28
872 1086 1090 28
873 1091 1092 28
874 1091 1093 28
875 1091 1094 28
876 1091 1095 28
877 1096 1097 28
878 1096 1098 28
879 1096 1099 28
880 1096 1100 28
881 1101 1102 28
882 1101 1103 28
883 1101 1104 28
884 1101 1105 28
885 1106 1107 28
886 1106 1108 28
887 1106 1109 28
888 1106 1110 28
889 1111 1112 28
890 1111 1113 28
891 1111 1114 28
892 1111 1115 28
893 1116 1117 28
894 1116 1118 28
895 1116 1119 28
896 1116 1120 28
897 1121 1122 28
898 1121 1123 28
899 1121 1124 28
900 1121 1125 28
901 1126 1127 28
902 1126 1128 28
903 1126 1129 28
904 1126 1130 28
905 1131 1132 28
906 1131 1133 28
907 1131 1134 28
908 1131 1135 28
909 1136 1137 28
910 1136 1138 28
911 1136 1139 28
912 1136 1140 28
913 1141 1142 28
914 1141 1143 28
915 1141 1144 28
916 1141 1145 28
917 1146 1147 28
918 1146 1148 28
919 1146 1149 28
920 1146 1150 28
921 1151 1152 28
922 1151 1153 28
923 1151 1154 28
924 1151 1155 28
925 1156 1157 28
926 1156 1158 28
927 1156 1159 28
928 1156 1160 28
929 1161 1162 28
930 1161 1163 28
931 1161 1164 28
932 1161 1165 28
933 1166 1167 28
934 1166 1168 28
935 1166 1169 28
936 1166 1170 28
937 1171 1172 28
938 1171 1173 28
939 1171 1174 28
940 1171 1175 28
941 1176 1177 28
942 1176 1178 28
943 1176 1179 28
944 1176 1180 28
945 1181 1182 28
946 1181 1183 28
947 1181 1184 28
948 1181 1185 28
949 1186 1187 28
950 1186 1188 28
951 1186 1189 28
952 1186 1190 28
953 1191 1192 28
954 1191 1193 28
955 1191 1194 28
956 1191 1195 28
957 1196 1197 28
958 1196 1198 28
959 1196 1199 28
960 1196 1200 28
961 1201 1202 28
962 1201 1203 28
963 1201 1204 28
964 1201 1205 28
965 1206 1207 28
966 1206 1208 28
967 1206 1209 28
968 1206 1210 28
969 1211 1212 28
970 1211 1213 28
971 1211 1214 28
972 1211 1215 28
973 1216 1217 28
974 1216 1218 28
975 1216 1219 28
976 1216 1220 28
977 1221 1222 28
978 1221 1223 28
979 1221 1224 28
980 1221 1225 28
981 1226 1227 28
982 1226 1228 28
983 1226 1229 28
984 1226 1230 28
985 1231 1232 28
986 1231 1233 28
987 1231 1234 28
988 1231 1235 28
989 1236 1237 28
990 1236 1238 28
991 1236 1239 28
992 1236 1240 28
993 1241 1242 28
994 1241 1243 28
995 1241 1244 28
996 1241 1245 28
997 1246 1247 28
998 1246 1248 28
999 1246 1249 28
1000 1246 1250 28
1001 1251 1252 28
1002 1251 1253 28
1003 1251 1254 28
1004 1251 1255 28
1005 1256 1257 28
1006 1256 1258 28
1007 1256 1259 28
1008 1256 1260 28
1009 1261 1262 28
1010 1261 1263 28
1011 1261 1264 28
1012 1261 1265 28
1013 1266 1267 28
1014 1266 1268 28
1015 1266 1269 28
1016 1266 1270 28
1017 1271 1272 28
1018 1271 1273 28
1019 1271 1274 28
1020 1271 1275 28
1021 1276 1277 28
1022 1276 1278 28
1023 1276 1279 28
1024 1276 1280 28
1025 1281 1282 28
1026 1281 1283 28
1027 1281 1284 28
1028 1281 1285 28
1029 1286 1287 28
1030 1286 1288 28
1031 1286 1289 28
1032 1286 1290 28
1033 1291 1292 28
1034 1291 1293 28
1035 1291 1294 28
1036 1291 1295 28
1037 1296 1297 28
1038 1296 1298 28
1039 1296 1299 28
1040 1296 1300 28
1041 1301 1302 28
1042 1301 1303 28
1043 1301 1304 28
1044 1301 1305 28
1045 1306 1307 28
1046 1306 1308 28
1047 1306 1309 28
1048 1306 1310 28
1049 1311 1312 28
1050 1311 1313 28
1051 1311 1314 28
1052 1311 1315 28
1053 1316 1317 28
1054 1316 1318 28
1055 1316 1319 28
1056 1316 1320 28
1057 1321 1322 28
1058 1321 1323 28
1059 1321 1324 28
1060 1321 1325 28
1061 1326 1327 28
1062 1326 1328 28
1063 1326 1329 28
1064 1326 1330 28
1065 1331 1332 28
1066 1331 1333 28
1067 1331 1334 28
1068 1331 1335 28
1069 1336 1337 28
1070 1336 1338 28
1071 1336 1339 28
1072 1336 1340 28
1073 1341 1342 28
1074 1341 1343 28
1075 1341 1344 28
1076 1341 1345 28
1077 1346 1347 28
1078 1346 1348 28
1079 1346 1349 28
1080 1346 1350 28
1081 1351 1352 28
1082 1351 1353 28
1083 1351 1354 28
1084 1351 1355 28
1085 1356 1357 28
1086 1356 1358 28
1087 1356 1359 28
1088 1356 1360 28
1089 1361 1362 28
1090 1361 1363 28
1091 1361 1364 28
1092 1361 1365 28
1093 1366 1367 28
1094 1366 1368 28
1095 1366 1369 28
1096 1366 1370 28
1097 1371 1372 28
1098 1371 1373 28
1099 1371 1374 28
1100 1371 1375 28
1101 1376 1377 28
1102 1376 1378 28
1103 1376 1379 28
1104 1376 1380 28
1105 1381 1382 28
1106 1381 1383 28
1107 1381 1384 28
1108 1381 1385 28
1109 1386 1387 28
1110 1386 1388 28
1111 1386 1389 28
1112 1386 1390 28
1113 1391 1392 28
1114 1391 1393 28
1115 1391 1394 28
1116 1391 1395 28
1117 1396 1397 28
1118 1396 1398 28
1119 1396 1399 28
1120 1396 1400 28
1121 1401 1402 28
1122 1401 1403 28
1123 1401 1404 28
1124 1401 1405 28
1125 1406 1407 28
1126 1406 1408 28
1127 1406 1409 28
1128 1406 1410 28
1129 1411 1412 28
1130 1411 1413 28
1131 1411 1414 28
1132 1411 1415 28
1133 1416 1417 28
1134 1416 1418 28
1135 1416 1419 28
1136 1416 1420 28
1137 1421 1422 28
1138 1421 1423 28
1139 1421 1424 28
1140 1421 1425 28
1141 1426 1427 28
1142 1426 1428 28
1143 1426 1429 28
1144 1426 1430 28
1145 1431 1432 28
1146 1431 1433 28
1147 1431 1434 28
1148 1431 1435 28
1149 1436 1437 28
1150 1436 1438 28
1151 1436 1439 28
1152 1436 1440 28
1153 1441 1442 28
1154 1441 1443 28
1155 1441 1444 28
1156 1441 1445 28
1157 1446 1447 28
1158 1446 1448 28
1159 1446 1449 28
1160 1446 1450 28
1161 1451 1452 28
1162 1451 1453 28
1163 1451 1454 28
1164 1451 1455 28
1165 1456 1457 28
1166 1456 1458 28
1167 1456 1459 28
1168 1456 1460 28
1169 1461 1462 28
1170 1461 1463 28
1171 1461 1464 28
1172 1461 1465 28
1173 1466 1467 28
1174 1466 1468 28
1175 1466 1469 28
1176 1466 1470 28
1177 1471 1472 28
1178 1471 1473 28
1179 1471 1474 28
1180 1471 1475 28
1181 1476 1477 28
1182 1476 1478 28
1183 1476 1479 28
1184 1476 1480 28
1185 1481 1482 28
1186 1481 1483 28
1187 1481 1484 28
1188 1481 1485 28
1189 1486 1487 28
1190 1486 1488 28
1191 1486 1489 28
1192 1486 1490 28
1193 1491 1492 28
1194 1491 1493 28
1195 1491 1494 28
1196 1491 1495 28
1197 1496 1497 28
1198 1496 1498 28
1199 1496 1499 28
1200 1496 1500 28
1201 1501 1502 28
1202 1501 1503 28
1203 1501 1504 28
1204 1501 1505 28
1205 1506 1507 28
1206 1506 1508 28
1207 1506 1509 28
1208 1506 1510 28
1209 1511 1512 28
1210 1511 1513 28
1211 1511 1514 28
1212 1511 1515 28
1213 1516 1517 28
1214 1516 1518 28
1215 1516 1519 28
1216 1516 1520 28
1217 1521 1522 28
1218 1521 1523 28
1219 1521 1524 28
1220 1521 1525 28
1221 1526 1527 28
1222 1526 1528 28
1223 1526 1529 28
1224 1526 1530 28
1225 1531 1532 28
1226 1531 1533 28
1227 1531 1534 28
1228 1531 1535 28
1229 1536 1537 28
1230 1536 1538 28
1231 1536 1539 28
1232 1536 1540 28
1233 1541 1542 28
1234 1541 1543 28
1235 1541 1544 28
1236 1541 1545 28
1237 1546 1547 28
1238 1546 1548 28
1239 1546 1549 28
1240 1546 1550 28
1241 1551 1552 28
1242 1551 1553 28
1243 1551 1554 28
1244 1551 1555 28
1245 1556 1557 28
1246 1556 1558 28
1247 1556 1559 28
1248 1556 1560 28
1249 1561 1562 28
1250 1561 1563 28
1251 1561 1564 28
1252 1561 1565 28
1253 1566 1567 28
1254 1566 1568 28
1255 1566 1569 28
1256 1566 1570 28
1257 1571 1572 28
1258 1571 1573 28
1259 1571 1574 28
1260 1571 1575 28
1261 1576 1577 28
1262 1576 1578 28
1263 1576 1579 28
1264 1576 1580 28
1265 1581 1582 28
1266 1581 1583 28
1267 1581 1584 28
1268 1581 1585 28
1269 1586 1587 28
1270 1586 1588 28
1271 1586 1589 28
1272 1586 1590 28
1273 1591 1592 28
1274 1591 1593 28
1275 1591 1594 28
1276 1591 1595 28
1277 1596 1597 28
1278 1596 1598 28
1279 1596 1599 28
1280 1596 1600 28
1281 1601 1602 28
1282 1601 1603 28
1283 1601 1604 28
1284 1601 1605 28
1285 1606 1607 28
1286 1606 1608 28
1287 1606 1609 28
1288 1606 1610 28
1289 1611 1612 28
1290 1611 1613 28
1291 1611 1614 28
1292 1611 1615 28
1293 1616 1617 28
1294 1616 1618 28
1295 1616 1619 28
1296 1616 1620 28
1297 1621 1622 28
1298 1621 1623 28
1299 1621 1624 28
1300 1621 1625 28
1301 1626 1627 28
1302 1626 1628 28
1303 1626 1629 28
1304 1626 1630 28
1305 1631 1632 28
1306 1631 1633 28
1307 1631 1634 28
1308 1631 1635 28
1309 1636 1637 28
1310 1636 1638 28
1311 1636 1639 28
1312 1636 1640 28
1313 1641 1642 28
1314 1641 1643 28
1315 1641 1644 28
1316 1641 1645 28
1317 1646 1647 28
1318 1646 1648 28
1319 1646 1649 28
1320 1646 1650 28
1321 1651 1652 28
1322 1651 1653 28
1323 1651 1654 28
1324 1651 1655 28
1325 1656 1657 28
1326 1656 1658 28
1327 1656 1659 28
1328 1656 1660 28
1329 1661 1662 28
1330 1661 1663 28
1331 1661 1664 28
1332 1661 1665 28
1333 1666 1667 28
1334 1666 1668 28
1335 1666 1669 28
1336 1666 1670 28
1337 1671 1672 28
1338 1671 1673 28
1339 1671 1674 28
1340 1671 1675 28
1341 1676 1677 28
1342 1676 1678 28
1343 1676 1679 28
1344 1676 1680 28
1345 1681 1682 28
1346 1681 1683 28
1347 1681 1684 28
1348 1681 1685 28
1349 1686 1687 28
1350 1686 1688 28
1351 1686 1689 28
1352 1686 1690 28
1353 1691 1692 28
1354 1691 1693 28
1355 1691 1694 28
1356 1691 1695 28
1357 1696 1697 28
1358 1696 1698 28
1359 1696 1699 28
1360 1696 1700 28
1361 1701 1702 28
1362 1701 1703 28
1363 1701 1704 28
1364 1701 1705 28
1365 1706 1707 28
1366 1706 1708 28
1367 1706 1709 28
1368 1706 1710 28
1369 1711 1712 28
1370 1711 1713 28
1371 1711 1714 28
1372 1711 1715 28
1373 1716 1717 28
1374 1716 1718 28
1375 1716 1719 28
1376 1716 1720 28
1377 1721 1722 28
1378 1721 1723 28
1379 1721 1724 28
1380 1721 1725 28
1381 1726 1727 28
1382 1726 1728 28
1383 1726 1729 28
1384 1726 1730 28
1385 1731 1732 28
1386 1731 1733 28
1387 1731 1734 28
1388 1731 1735 28
1389 1736 1737 28
1390 1736 1738 28
1391 1736 1739 28
1392 1736 1740 28
1393 1741 1742 28
1394 1741 1743 28
1395 1741 1744 28
1396 1741 1745 28
1397 1746 1747 28
1398 1746 1748 28
1399 1746 1749 28
1400 1746 1750 28
1401 1751 1752 28
1402 1751 1753 28
1403 1751 1754 28
1404 1751 1755 28
1405 1756 1757 28
1406 1756 1758 28
1407 1756 1759 28
1408 1756 1760 28
1409 1761 1762 28
1410 1761 1763 28
1411 1761 1764 28
1412 1761 1765 28
1413 1766 1767 28
1414 1766 1768 28
1415 1766 1769 28
1416 1766 1770 28
1417 1771 1772 28
1418 1771 1773 28
1419 1771 1774 28
1420 1771 1775 28
1421 1776 1777 28
1422 1776 1778 28
1423 1776 1779 28
1424 1776 1780 28
1425 1781 1782 28
1426 1781 1783 28
1427 1781 1784 28
1428 1781 1785 28
1429 1786 1787 28
1430 1786 1788 28
1431 1786 1789 28
1432 1786 1790 28
1433 1791 1792 28
1434 1791 1793 28
1435 1791 1794 28
1436 1791 1795 28
1437 1796 1797 28
1438 1796 1798 28
1439 1796 1799 28
1440 1796 1800 28
1441 1801 1802 28
1442 1801 1803 28
1443 1801 1804 28
1444 1801 1805 28
1445 1806 1807 28
1446 1806 1808 28
1447 1806 1809 28
1448 1806 1810 28
1449 1811 1812 28
1450 1811 1813 28
1451 1811 1814 28
1452 1811 1815 28
1453 1816 1817 28
1454 1816 1818 28
1455 1816 1819 28
1456 1816 1820 28
1457 1821 1822 28
1458 1821 1823 28
1459 1821 1824 28
1460 1821 1825 28
1461 1826 1827 28
1462 1826 1828 28
1463 1826 1829 28
1464 1826 1830 28
1465 1831 1832 28
1466 1831 1833 28
1467 1831 1834 28
1468 1831 1835 28
1469 1836 1837 28
1470 1836 1838 28
1471 1836 1839 28
1472 1836 1840 28
1473 1841 1842 28
1474 1841 1843 28
1475 1841 1844 28
1476 1841 1845 28
1477 1846 1847 28
1478 1846 1848 28
1479 1846 1849 28
1480 1846 1850 28
1481 1851 1852 28
1482 1851 1853 28
1483 1851 1854 28
1484 1851 1855 28
1485 1856 1857 28
1486 1856 1858 28
1487 1856 1859 28
1488 1856 1860 28
1489 1861 1862 28
1490 1861 1863 28
1491 1861 1864 28
1492 1861 1865 28
1493 1866 1867 28
1494 1866 1868 28
1495 1866 1869 28
1496 1866 1870 28
1497 1871 1872 28
1498 1871 1873 28
1499 1871 1874 28
1500 1871 1875 28
1501 1876 1877 28
1502 1876 1878 28
1503 1876 1879 28
1504 1876 1880 28
1505 1881 1882 28
1506 1881 1883 28
1507 1881 1884 28
1508 1881 1885 28
1509 1886 1887 28
1510 1886 1888 28
1511 1886 1889 28
1512 1886 1890 28
1513 1891 1892 28
1514 1891 1893 28
1515 1891 1894 28
1516 1891 1895 28
1517 1896 1897 28
1518 1896 1898 28
1519 1896 1899 28
1520 1896 1900 28
1521 1901 1902 28
1522 1901 1903 28
1523 1901 1904 28
1524 1901 1905 28
1525 1906 1907 28
1526 1906 1908 28
1527 1906 1909 28
1528 1906 1910 28
1529 1911 1912 28
1530 1911 1913 28
1531 1911 1914 28
1532 1911 1915 28
1533 1916 1917 28
1534 1916 1918 28
1535 1916 1919 28
1536 1916 1920 28
1537 1921 1922 28
1538 1921 1923 28
1539 1921 1924 28
1540 1921 1925 28
1541 1926 1927 28
1542 1926 1928 28
1543 1926 1929 28
1544 1926 1930 28
1545 1931 1932 28
1546 1931 1933 28
1547 1931 1934 28
1548 1931 1935 28
1549 1936 1937 28
1550 1936 1938 28
1551 1936 1939 28
1552 1936 1940 28
1553 1941 1942 28
1554 1941 1943 28
1555 1941 1944 28
1556 1941 1945 28
1557 1946 1947 28
1558 1946 1948 28
1559 1946 1949 28
1560 1946 1950 28
1561 1951 1952 28
1562 1951 1953 28
1563 1951 1954 28
1564 1951 1955 28
1565 1956 1957 28
1566 1956 1958 28
1567 1956 1959 28
1568 1956 1960 28
1569 1961 1962 28
1570 1961 1963 28
1571 1961 1964 28
1572 1961 1965 28
1573 1966 1967 28
1574 1966 1968 28
1575 1966 1969 28
1576 1966 1970 28
1577 1971 1972 28
1578 1971 1973 28
1579 1971 1974 28
1580 1971 1975 28
1581 1976 1977 28
1582 1976 1978 28
1583 1976 1979 28
1584 1976 1980 28
1585 1981 1982 28
1586 1981 1983 28
1587 1981 1984 28
1588 1981 1985 28
1589 1986 1987 28
1590 1986 1988 28
1591 1986 1989 28
1592 1986 1990 28
1593 1991 1992 28
1594 1991 1993 28
1595 1991 1994 28
1596 1991 1995 28
1597 1996 1997 28
1598 1996 1998 28
1599 1996 1999 28
1600 1996 2000 28
1601 2001 2002 28
1602 2001 2003 28
1603 2001 2004 28
1604 2001 2005 28
1605 2006 2007 28
1606 2006 2008 28
1607 2006 2009 28
1608 2006 2010 28
1609 2011 2012 28
1610 2011 2013 28
1611 2011 2014 28
1612 2011 2015 28
1613 2016 2017 28
1614 2016 2018 28
1615 2016 2019 28
1616 2016 2020 28
1617 2021 2022 28
1618 2021 2023 28
1619 2021 2024 28
1620 2021 2025 28
1621 2026 2027 28
1622 2026 2028 28
1623 2026 2029 28
1624 2026 2030 28
1625 2031 2032 28
1626 2031 2033 28
1627 2031 2034 28
1628 2031 2035 28
1629 2036 2037 28
1630 2036 2038 28
1631 2036 2039 28
1632 2036 2040 28
1633 2041 2042 28
1634 2041 2043 28
1635 2041 2044 28
1636 2041 2045 28
1637 2046 2047 28
1638 2046 2048 28
1639 2046 2049 28
1640 2046 2050 28
1641 2051 2052 28
1642 2051 2053 28
1643 2051 2054 28
1644 2051 2055 28
1645 2056 2057 28
1646 2056 2058 28
1647 2056 2059 28
1648 2056 2060 28
1649 2061 2062 28
1650 2061 2063 28
1651 2061 2064 28
1652 2061 2065 28
1653 2066 2067 28
1654 2066 2068 28
1655 2066 2069 28
1656 2066 2070 28
1657 2071 2072 28
1658 2071 2073 28
1659 2071 2074 28
1660 2071 2075 28
1661 2076 2077 28
1662 2076 2078 28
1663 2076 2079 28
1664 2076 2080 28
1665 2081 2082 28
1666 2081 2083 28
1667 2081 2084 28
1668 2081 2085 28
1669 2086 2087 28
1670 2086 2088 28
1671 2086 2089 28
1672 2086 2090 28
1673 2091 2092 28
1674 2091 2093 28
1675 2091 2094 28
1676 2091 2095 28
1677 2096 2097 28
1678 2096 2098 28
1679 2096 2099 28
1680 2096 2100 28
1681 2101 2102 28
1682 2101 2103 28
1683 2101 2104 28
1684 2101 2105 28
1685 2106 2107 28
1686 2106 2108 28
1687 2106 2109 28
1688 2106 2110 28
1689 2111 2112 28
1690 2111 2113 28
1691 2111 2114 28
1692 2111 2115 28
1693 2116 2117 28
1694 2116 2118 28
1695 2116 2119 28
1696 2116 2120 28
1697 2121 2122 28
1698 2121 2123 28
1699 2121 2124 28
1700 2121 2125 28
1701 2126 2127 28
1702 2126 2128 28
1703 2126 2129 28
1704 2126 2130 28
1705 2131 2132 28
1706 2131 2133 28
1707 2131 2134 28
1708 2131 2135 28
1709 2136 2137 28
1710 2136 2138 28
1711 2136 2139 28
1712 2136 2140 28
1713 2141 2142 28
1714 2141 2143 28
1715 2141 2144 28
1716 2141 2145 28
1717 2146 2147 28
1718 2146 2148 28
1719 2146 2149 28
1720 2146 2150 28
1721 2151 2152 28
1722 2151 2153 28
1723 2151 2154 28
1724 2151 2155 28
1725 2156 2157 28
1726 2156 2158 28
1727 2156 2159 28
1728 2156 2160 28
1729 2161 2162 28
1730 2161 2163 28
1731 2161 2164 28
1732 2161 2165 28
1733 2166 2167 28
1734 2166 2168 28
1735 2166 2169 28
1736 2166 2170 28
1737 2171 2172 28
1738 2171 2173 28
1739 2171 2174 28
1740 2171 2175 28
1741 2176 2177 28
1742 2176 2178 28
1743 2176 2179 28
1744 2176 2180 28
1745 2181 2182 28
1746 2181 2183 28
1747 2181 2184 28
1748 2181 2185 28
1749 2186 2187 28
1750 2186 2188 28
1751 2186 2189 28
1752 2186 2190 28
1753 2191 2192 28
1754 2191 2193 28
1755 2191 2194 28
1756 2191 2195 28
1757 2196 2197 28
1758 2196 2198 28
1759 2196 2199 28
1760 2196 2200 28
1761 2201 2202 28
1762 2201 2203 28
1763 2201 2204 28
1764 2201 2205 28
1765 2206 2207 28
1766 2206 2208 28
1767 2206 2209 28
1768 2206 2210 28
1769 2211 2212 28
1770 2211 2213 28
1771 2211 2214 28
1772 2211 2215 28
1773 2216 2217 28
1774 2216 2218 28
1775 2216 2219 28
1776 2216 2220 28
1777 2221 2222 28
1778 2221 2223 28
1779 2221 2224 28
1780 2221 2225 28
1781 2226 2227 28
1782 2226 2228 28
1783 2226 2229 28
1784 2226 2230 28
1785 2231 2232 28
1786 2231 2233 28
1787 2231 2234 28
1788 2231 2235 28
1789 2236 2237 28
1790 2236 2238 28
1791 2236 2239 28
1792 2236 2240 28
1793 2241 2242 28
1794 2241 2243 28
1795 2241 2244 28
1796 2241 2245 28
1797 2246 2247 28
1798 2246 2248 28
1799 2246 2249 28
1800 2246 2250 28
1801 2251 2252 28
1802 2251 2253 28
1803 2251 2254 28
1804 2251 2255 28
1805 2256 2257 28
1806 2256 2258 28
1807 2256 2259 28
1808 2256 2260 28
1809 2261 2262 28
1810 2261 2263 28
1811 2261 2264 28
1812 2261 2265 28
1813 2266 2267 28
1814 2266 2268 28
1815 2266 2269 28
1816 2266 2270 28
1817 2271 2272 28
1818 2271 2273 28
1819 2271 2274 28
1820 2271 2275 28
1821 2276 2277 28
1822 2276 2278 28
1823 2276 2279 28
1824 2276 2280 28
1825 2281 2282 28
1826 2281 2283 28
1827 2281 2284 28
1828 2281 2285 28
1829 2286 2287 28
1830 2286 2288 28
1831 2286 2289 28
1832 2286 2290 28
1833 2291 2292 28
1834 2291 2293 28
1835 2291 2294 28
1836 2291 2295 28
1837 2296 2297 28
1838 2296 2298 28
1839 2296 2299 28
1840 2296 2300 28
1841 2301 2302 28
1842 2301 2303 28
1843 2301 2304 28
1844 2301 2305 28
1845 2306 2307 28
1846 2306 2308 28
1847 2306 2309 28
1848 2306 2310 28
1849 2311 2312 28
1850 2311 2313 28
1851 2311 2314 28
1852 2311 2315 28
1853 2316 2317 28
1854 2316 2318 28
1855 2316 2319 28
1856 2316 2320 28
1857 2321 2322 28
1858 2321 2323 28
1859 2321 2324 28
1860 2321 2325 28
1861 2326 2327 28
1862 2326 2328 28
1863 2326 2329 28
1864 2326 2330 28
1865 2331 2332 28
1866 2331 2333 28
1867 2331 2334 28
1868 2331 2335 28
1869 2336 2337 28
1870 2336 2338 28
1871 2336 2339 28
1872 2336 2340 28
1873 2341 2342 28
1874 2341 2343 28
1875 2341 2344 28
1876 2341 2345 28
1877 2346 2347 28
1878 2346 2348 28
1879 2346 2349 28
1880 2346 2350 28
1881 2351 2352 28
1882 2351 2353 28
1883 2351 2354 28
1884 2351 2355 28
1885 2356 2357 28
1886 2356 2358 28
1887 2356 2359 28
1888 2356 2360 28
1889 2361 2362 28
1890 2361 2363 28
1891 2361 2364 28
1892 2361 2365 28
1893 2366 2367 28
1894 2366 2368 28
1895 2366 2369 28
1896 2366 2370 28
1897 2371 2372 28
1898 2371 2373 28
1899 2371 2374 28
1900 2371 2375 28
1901 2376 2377 28
1902 2376 2378 28
1903 2376 2379 28
1904 2376 2380 28
1905 2381 2382 28
1906 2381 2383 28
1907 2381 2384 28
1908 2381 2385 28
1909 2386 2387 28
1910 2386 2388 28
1911 2386 2389 28
1912 2386 2390 28
1913 2391 2392 28
1914 2391 2393 28
1915 2391 2394 28
1916 2391 2395 28
1917 2396 2397 28
1918 2396 2398 28
1919 2396 2399 28
1920 2396 2400 28
1921 2401 2402 28
1922 2401 2403 28
1923 2401 2404 28
1924 2401 2405 28
1925 2406 2407 28
1926 2406 2408 28
1927 2406 2409 28
1928 2406 2410 28
1929 2411 2412 28
1930 2411 2413 28
1931 2411 2414 28
1932 2411 2415 28
1933 2416 2417 28
1934 2416 2418 28
1935 2416 2419 28
1936 2416 2420 28
1937 2421 2422 28
1938 2421 2423 28
1939 2421 2424 28
1940 2421 2425 28
1941 2426 2427 28
1942 2426 2428 28
1943 2426 2429 28
1944 2426 2430 28
1945 2431 2432 28
1946 2431 2433 28
1947 2431 2434 28
1948 2431 2435 28
1949 2436 2437 28
1950 2436 2438 28
1951 2436 2439 28
1952 2436 2440 28
1953 2441 2442 28
1954 2441 2443 28
1955 2441 2444 28
1956 2441 2445 28
1957 2446 2447 28
1958 2446 2448 28
1959 2446 2449 28
1960 2446 2450 28
1961 2451 2452 28
1962 2451 2453 28
1963 2451 2454 28
1964 2451 2455 28
1965 2456 2457 28
1966 2456 2458 28
1967 2456 2459 28
1968 2456 2460 28
1969 2461 2462 28
1970 2461 2463 28
1971 2461 2464 28
1972 2461 2465 28
1973 2466 2467 28
1974 2466 2468 28
1975 2466 2469 28
1976 2466 2470 28
1977 2471 2472 28
1978 2471 2473 28
1979 2471 2474 28
1980 2471 2475 28
1981 2476 2477 28
1982 2476 2478 28
1983 2476 2479 28
1984 2476 2480 28
1985 2481 2482 28
1986 2481 2483 28
1987 2481 2484 28
1988 2481 2485 28
1989 2486 2487 28
1990 2486 2488 28
1991 2486 2489 28
1992 2486 2490 28
1993 2491 2492 28
1994 2491 2493 28
1995 2491 2494 28
1996 2491 2495 28
1997 2496 2497 28
1998 2496 2498 28
1999 2496 2499 28
2000 2496 2500 28
2001 2501 2502 28
2002 2501 2503 28
2003 2501 2504 28
2004 2501 2505 28
2005 2506 2507 28
2006 2506 2508 28
2007 2506 2509 28
2008 2506 2510 28
2009 2511 2512 28
2010 2511 2513 28
2011 2511 2514 28
2012 2511 2515 28
2013 2516 2517 28
2014 2516 2518 28
2015 2516 2519 28
2016 2516 2520 28
2017 2521 2522 28
2018 2521 2523 28
2019 2521 2524 28
2020 2521 2525 28
2021 2526 2527 28
2022 2526 2528 28
2023 2526 2529 28
2024 2526 2530 28
2025 2531 2532 28
2026 2531 2533 28
2027 2531 2534 28
2028 2531 2535 28
2029 2536 2537 28
2030 2536 2538 28
2031 2536 2539 28
2032 2536 2540 28
2033 2541 2542 28
2034 2541 2543 28
2035 2541 2544 28
2036 2541 2545 28
2037 2546 2547 28
2038 2546 2548 28
2039 2546 2549 28
2040 2546 2550 28
2041 2551 2552 28
2042 2551 2553 28
2043 2551 2554 28
2044 2551 2555 28
2045 2556 2557 28
2046 2556 2558 28
2047 2556 2559 28
2048 2556 2560 28
2049 2561 2562 28
2050 2561 2563 28
2051 2561 2564 28
2052 2561 2565 28
2053 2566 2567 28
2054 2566 2568 28
2055 2566 2569 28
2056 2566 2570 28
2057 2571 2572 28
2058 2571 2573 28
2059 2571 2574 28
2060 2571 2575 28
2061 2576 2577 28
2062 2576 2578 28
2063 2576 2579 28
2064 2576 2580 28
2065 2581 2582 28
2066 2581 2583 28
2067 2581 2584 28
2068 2581 2585 28
2069 2586 2587 28
2070 2586 2588 28
2071 2586 2589 28
2072 2586 2590 28
2073 2591 2592 28
2074 2591 2593 28
2075 2591 2594 28
2076 2591 2595 28
2077 2596 2597 28
2078 2596 2598 28
2079 2596 2599 28
2080 2596 2600 28
2081 2601 2602 28
2082 2601 2603 28
2083 2601 2604 28
2084 2601 2605 28
2085 2606 2607 28
2086 2606 2608 28
2087 2606 2609 28
2088 2606 2610 28
2089 2611 2612 28
2090 2611 2613 28
2091 2611 2614 28
2092 2611 2615 28
2093 2616 2617 28
2094 2616 2618 28
2095 2616 2619 28
2096 2616 2620 28
2097 2621 2622 28
2098 2621 2623 28
2099 2621 2624 28
2100 2621 2625 28
2101 2626 2627 28
2102 2626 2628 28
2103 2626 2629 28
2104 2626 2630 28
2105 2631 2632 28
2106 2631 2633 28
2107 2631 2634 28
2108 2631 2635 28
2109 2636 2637 28
2110 2636 2638 28
2111 2636 2639 28
2112 2636 2640 28
2113 2641 2642 28
2114 2641 2643 28
2115 2641 2644 28
2116 2641 2645 28
2117 2646 2647 28
2118 2646 2648 28
2119 2646 2649 28
2120 2646 2650 28
2121 2651 2652 28
2122 2651 2653 28
2123 2651 2654 28
2124 2651 2655 28
2125 2656 2657 28
2126 2656 2658 28
2127 2656 2659 28
2128 2656 2660 28
2129 2661 2662 28
2130 2661 2663 28
2131 2661 2664 28
2132 2661 2665 28
2133 2666 2667 28
2134 2666 2668 28
2135 2666 2669 28
2136 2666 2670 28
2137 2671 2672 28
2138 2671 2673 28
2139 2671 2674 28
2140 2671 2675 28
2141 2676 2677 28
2142 2676 2678 28
2143 2676 2679 28
2144 2676 2680 28
2145 2681 2682 28
2146 2681 2683 28
2147 2681 2684 28
2148 2681 2685 28
2149 2686 2687 28
2150 2686 2688 28
2151 2686 2689 28
2152 2686 2690 28
2153 2691 2692 28
2154 2691 2693 28
2155 2691 2694 28
2156 2691 2695 28
2157 2696 2697 28
2158 2696 2698 28
2159 2696 2699 28
2160 2696 2700 28
2161 2701 2702 28
2162 2701 2703 28
2163 2701 2704 28
2164 2701 2705 28
2165 2706 2707 28
2166 2706 2708 28
2167 2706 2709 28
2168 2706 2710 28
2169 2711 2712 28
2170 2711 2713 28
2171 2711 2714 28
2172 2711 2715 28
2173 2716 2717 28
2174 2716 2718 28
2175 2716 2719 28
2176 2716 2720 28
2177 2721 2722 28
2178 2721 2723 28
2179 2721 2724 28
2180 2721 2725 28
2181 2726 2727 28
2182 2726 2728 28
2183 2726 2729 28
2184 2726 2730 28
2185 2731 2732 28
2186 2731 2733 28
2187 2731 2734 28
2188 2731 2735 28
2189 2736 2737 28
2190 2736 2738 28
2191 2736 2739 28
2192 2736 2740 28
2193 2741 2742 28
2194 2741 2743 28
2195 2741 2744 28
2196 2741 2745 28
2197 2746 2747 28
2198 2746 2748 28
2199 2746 2749 28
2200 2746 2750 28
2201 2751 2752 28
2202 2751 2753 28
2203 2751 2754 28
2204 2751 2755 28
2205 2756 2757 28
2206 2756 2758 28
2207 2756 2759 28
2208 2756 2760 28
2209 2761 2762 28
2210 2761 2763 28
2211 2761 2764 28
2212 2761 2765 28
2213 2766 2767 28
2214 2766 2768 28
2215 2766 2769 28
2216 2766 2770 28
2217 2771 2772 28
2218 2771 2773 28
2219 2771 2774 28
2220 2771 2775 28
2221 2776 2777 28
2222 2776 2778 28
2223 2776 2779 28
2224 2776 2780 28
2225 2781 2782 28
2226 2781 2783 28
2227 2781 2784 28
2228 2781 2785 28
2229 2786 2787 28
2230 2786 2788 28
2231 2786 2789 28
2232 2786 2790 28
2233 2791 2792 28
2234 2791 2793 28
2235 2791 2794 28
2236 2791 2795 28
2237 2796 2797 28
2238 2796 2798 28
2239 2796 2799 28
2240 2796 2800 28
2241 2801 2802 28
2242 2801 2803 28
2243 2801 2804 28
2244 2801 2805 28
2245 2806 2807 28
2246 2806 2808 28
2247 2806 2809 28
2248 2806 2810 28
2249 2811 2812 28
2250 2811 2813 28
2251 2811 2814 28
2252 2811 2815 28
2253 2816 2817 28
2254 2816 2818 28
2255 2816 2819 28
2256 2816 2820 28
2257 2821 2822 28
2258 2821 2823 28
2259 2821 2824 28
2260 2821 2825 28
2261 2826 2827 28
2262 2826 2828 28
2263 2826 2829 28
2264 2826 2830 28
2265 2831 2832 28
2266 2831 2833 28
2267 2831 2834 28
2268 2831 2835 28
2269 2836 2837 28
2270 2836 2838 28
2271 2836 2839 28
2272 2836 2840 28
2273 2841 2842 28
2274 2841 2843 28
2275 2841 2844 28
2276 2841 2845 28
2277 2846 2847 28
2278 2846 2848 28
2279 2846 2849 28
2280 2846 2850 28
2281 2851 2852 28
2282 2851 2853 28
2283 2851 2854 28
2284 2851 2855 28
2285 2856 2857 28
2286 2856 2858 28
2287 2856 2859 28
2288 2856 2860 28
2289 2861 2862 28
2290 2861 2863 28
2291 2861 2864 28
2292 2861 2865 28
2293 2866 2867 28
2294 2866 2868 28
2295 2866 2869 28
2296 2866 2870 28
2297 2871 2872 28
2298 2871 2873 28
2299 2871 2874 28
2300 2871 2875 28
2301 2876 2877 28
2302 2876 2878 28
2303 2876 2879 28
2304 2876 2880 28
2305 2881 2882 28
2306 2881 2883 28
2307 2881 2884 28
2308 2881 2885 28
2309 2886 2887 28
2310 2886 2888 28
2311 2886 2889 28
2312 2886 2890 28
2313 2891 2892 28
2314 2891 2893 28
2315 2891 2894 28
2316 2891 2895 28
2317 2896 2897 28
2318 2896 2898 28
2319 2896 2899 28
2320 2896 2900 28
2321 2901 2902 28
2322 2901 2903 28
2323 2901 2904 28
2324 2901 2905 28
2325 2906 2907 28
2326 2906 2908 28
2327 2906 2909 28
2328 2906 2910 28
2329 2911 2912 28
2330 2911 2913 28
2331 2911 2914 28
2332 2911 2915 28
2333 2916 2917 28
2334 2916 2918 28
2335 2916 2919 28
2336 2916 2920 28
2337 2921 2922 28
2338 2921 2923 28
2339 2921 2924 28
2340 2921 2925 28
2341 2926 2927 28
2342 2926 2928 28
2343 2926 2929 28
2344 2926 2930 28
2345 2931 2932 28
2346 2931 2933 28
2347 2931 2934 28
2348 2931 2935 28
2349 2936 2937 28
2350 2936 2938 28
2351 2936 2939 28
2352 2936 2940 28
2353 2941 2942 28
2354 2941 2943 28
2355 2941 2944 28
2356 2941 2945 28
2357 2946 2947 28
2358 2946 2948 28
2359 2946 2949 28
2360 2946 2950 28
2361 2951 2952 28
2362 2951 2953 28
2363 2951 2954 28
2364 2951 2955 28
2365 2956 2957 28
2366 2956 2958 28
2367 2956 2959 28
2368 2956 2960 28
2369 2961 2962 28
2370 2961 2963 28
2371 2961 2964 28
2372 2961 2965 28
2373 2966 2967 28
2374 2966 2968 28
2375 2966 2969 28
2376 2966 2970 28
2377 2971 2972 28
2378 2971 2973 28
2379 2971 2974 28
2380 2971 2975 28
2381 2976 2977 28
2382 2976 2978 28
2383 2976 2979 28
2384 2976 2980 28
2385 2981 2982 28
2386 2981 2983 28
2387 2981 2984 28
2388 2981 2985 28
2389 2986 2987 28
2390 2986 2988 28
2391 2986 2989 28
2392 2986 2990 28
2393 2991 2992 28
2394 2991 2993 28
2395 2991 2994 28
2396 2991 2995 28
2397 2996 2997 28
2398 2996 2998 28
2399 2996 2999 28
2400 2996 3000 28
2401 3001 3002 28
2402 3001 3003 28
2403 3001 3004 28
2404 3001 3005 28
2405 3006 3007 28
2406 3006 3008 28
2407 3006 3009 28
2408 3006 3010 28
2409 3011 3012 28
2410 3011 3013 28
2411 3011 3014 28
2412 3011 3015 28
2413 3016 3017 28
2414 3016 3018 28
2415 3016 3019 28
2416 3016 3020 28
2417 3021 3022 28
2418 3021 3023 28
2419 3021 3024 28
2420 3021 3025 28
2421 3026 3027 28
2422 3026 3028 28
2423 3026 3029 28
2424 3026 3030 28
2425 3031 3032 28
2426 3031 3033 28
2427 3031 3034 28
2428 3031 3035 28
2429 3036 3037 28
2430 3036 3038 28
2431 3036 3039 28
2432 3036 3040 28
2433 3041 3042 28
2434 3041 3043 28
2435 3041 3044 28
2436 3041 3045 28
2437 3046 3047 28
2438 3046 3048 28
2439 3046 3049 28
2440 3046 3050 28
2441 3051 3052 28
2442 3051 3053 28
2443 3051 3054 28
2444 3051 3055 28
2445 3056 3057 28
2446 3056 3058 28
2447 3056 3059 28
2448 3056 3060 28
2449 3061 3062 28
2450 3061 3063 28
2451 3061 3064 28
2452 3061 3065 28
2453 3066 3067 28
2454 3066 3068 28
2455 3066 3069 28
2456 3066 3070 28
2457 3071 3072 28
2458 3071 3073 28
2459 3071 3074 28
2460 3071 3075 28
2461 3076 3077 28
2462 3076 3078 28
2463 3076 3079 28
2464 3076 3080 28
2465 3081 3082 28
2466 3081 3083 28
2467 3081 3084 28
2468 3081 3085 28
2469 3086 3087 28
2470 3086 3088 28
2471 3086 3089 28
2472 3086 3090 28
2473 3091 3092 28
2474 3091 3093 28
2475 3091 3094 28
2476 3091 3095 28
2477 3096 3097 28
2478 3096 3098 28
2479 3096 3099 28
2480 3096 3100 28
2481 3101 3102 28
2482 3101 3103 28
2483 3101 3104 28
2484 3101 3105 28
2485 3106 3107 28
2486 3106 3108 28
2487 3106 3109 28
2488 3106 3110 28
2489 3111 3112 28
2490 3111 3113 28
2491 3111 3114 28
2492 3111 3115 28
2493 3116 3117 28
2494 3116 3118 28
2495 3116 3119 28
2496 3116 3120 28
2497 3121 3122 28
2498 3121 3123 28
2499 3121 3124 28
2500 3121 3125 28
2501 3126 3127 28
2502 3126 3128 28
2503 3126 3129 28
2504 3126 3130 28
2505 3131 3132 28
2506 3131 3133 28
2507 3131 3134 28
2508 3131 3135 28
2509 3136 3137 28
2510 3136 3138 28
2511 3136 3139 28
2512 3136 3140 28
2513 3141 3142 28
2514 3141 3143 28
2515 3141 3144 28
2516 3141 3145 28
2517 3146 3147 28
2518 3146 3148 28
2519 3146 3149 28
2520 3146 3150 28
2521 3151 3152 28
2522 3151 3153 28
2523 3151 3154 28
2524 3151 3155 28
2525 3156 3157 28
2526 3156 3158 28
2527 3156 3159 28
2528 3156 3160 28
2529 3161 3162 28
2530 3161 3163 28
2531 3161 3164 28
2532 3161 3165 28
2533 3166 3167 28
2534 3166 3168 28
2535 3166 3169 28
2536 3166 3170 28
2537 3171 3172 28
2538 3171 3173 28
2539 3171 3174 28
2540 3171 3175 28
2541 3176 3177 28
2542 3176 3178 28
2543 3176 3179 28
2544 3176 3180 28
2545 3181 3182 28
2546 3181 3183 28
2547 3181 3184 28
2548 3181 3185 28
2549 3186 3187 28
2550 3186 3188 28
2551 3186 3189 28
2552 3186 3190 28
2553 3191 3192 28
2554 3191 3193 28
2555 3191 3194 28
2556 3191 3195 28
2557 3196 3197 28
2558 3196 3198 28
2559 3196 3199 28
2560 3196 3200 28
2561 3201 3202 28
2562 3201 3203 28
2563 3201 3204 28
2564 3201 3205 28
2565 3206 3207 28
2566 3206 3208 28
2567 3206 3209 28
2568 3206 3210 28
2569 3211 3212 28
2570 3211 3213 28
2571 3211 3214 28
2572 3211 3215 28
2573 3216 3217 28
2574 3216 3218 28
2575 3216 3219 28
2576 3216 3220 28
2577 3221 3222 28
2578 3221 3223 28
2579 3221 3224 28
2580 3221 3225 28
2581 3226 3227 28
2582 3226 3228 28
2583 3226 3229 28
2584 3226 3230 28
2585 3231 3232 28
2586 3231 3233 28
2587 3231 3234 28
2588 3231 3235 28
2589 3236 3237 28
2590 3236 3238 28
2591 3236 3239 28
2592 3236 3240 28
2593 3241 3242 28
2594 3241 3243 28
2595 3241 3244 28
2596 3241 3245 28
2597 3246 3247 28
2598 3246 3248 28
2599 3246 3249 28
2600 3246 3250 28
2601 3251 3252 28
2602 3251 3253 28
2603 3251 3254 28
2604 3251 3255 28
2605 3256 3257 28
2606 3256 3258 28
2607 3256 3259 28
2608 3256 3260 28
2609 3261 3262 28
2610 3261 3263 28
2611 3261 3264 28
2612 3261 3265 28
2613 3266 3267 28
2614 3266 3268 28
2615 3266 3269 28
2616 3266 3270 28
2617 3271 3272 28
2618 3271 3273 28
2619 3271 3274 28
2620 3271 3275 28
2621 3276 3277 28
2622 3276 3278 28
2623 3276 3279 28
2624 3276 3280 28
2625 3281 3282 28
2626 3281 3283 28
2627 3281 3284 28
2628 3281 3285 28
2629 3286 3287 28
2630 3286 3288 28
2631 3286 3289 28
2632 3286 3290 28
2633 3291 3292 28
2634 3291 3293 28
2635 3291 3294 28
2636 3291 3295 28
2637 3296 3297 28
2638 3296 3298 28
2639 3296 3299 28
2640 3296 3300 28
2641 3301 3302 28
2642 3301 3303 28
2643 3301 3304 28
2644 3301 3305 28
2645 3306 3307 28
2646 3306 3308 28
2647 3306 3309 28
2648 3306 3310 28
2649 3311 3312 28
2650 3311 3313 28
2651 3311 3314 28
2652 3311 3315 28
2653 3316 3317 28
2654 3316 3318 28
2655 3316 3319 28
2656 3316 3320 28
2657 3321 3322 28
2658 3321 3323 28
2659 3321 3324 28
2660 3321 3325 28
2661 3326 3327 28
2662 3326 3328 28
2663 3326 3329 28
2664 3326 3330 28
2665 3331 3332 28
2666 3331 3333 28
2667 3331 3334 28
2668 3331 3335 28
2669 3336 3337 28
2670 3336 3338 28
2671 3336 3339 28
2672 3336 3340 28
2673 3341 3342 28
2674 3341 3343 28
2675 3341 3344 28
2676 3341 3345 28
2677 3346 3347 28
2678 3346 3348 28
2679 3346 3349 28
2680 3346 3350 28
2681 3351 3352 28
2682 3351 3353 28
2683 3351 3354 28
2684 3351 3355 28
2685 3356 3357 28
2686 3356 3358 28
2687 3356 3359 28
2688 3356 3360 28
2689 3361 3362 28
2690 3361 3363 28
2691 3361 3364 28
2692 3361 3365 28
2693 3366 3367 28
2694 3366 3368 28
2695 3366 3369 28
2696 3366 3370 28
2697 3371 3372 28
2698 3371 3373 28
2699 3371 3374 28
2700 3371 3375 28
2701 3376 3377 28
2702 3376 3378 28
2703 3376 3379 28
2704 3376 3380 28
2705 3381 3382 28
2706 3381 3383 28
2707 3381 3384 28
2708 3381 3385 28
2709 3386 3387 28
2710 3386 3388 28
2711 3386 3389 28
2712 3386 3390 28
2713 3391 3392 28
2714 3391 3393 28
2715 3391 3394 28
2716 3391 3395 28
2717 3396 3397 28
2718 3396 3398 28
2719 3396 3399 28
2720 3396 3400 28
2721 3401 3402 28
2722 3401 3403 28
2723 3401 3404 28
2724 3401 3405 28
2725 3406 3407 28
2726 3406 3408 28
2727 3406 3409 28
2728 3406 3410 28
2729 3411 3412 28
2730 3411 3413 28
2731 3411 3414 28
2732 3411 3415 28
2733 3416 3417 28
2734 3416 3418 28
2735 3416 3419 28
2736 3416 3420 28
2737 3421 3422 28
2738 3421 3423 28
2739 3421 3424 28
2740 3421 3425 28
2741 3426 3427 28
2742 3426 3428 28
2743 3426 3429 28
2744 3426 3430 28
2745 3431 3432 28
2746 3431 3433 28
2747 3431 3434 28
2748 3431 3435 28
2749 3436 3437 28
2750 3436 3438 28
2751 3436 3439 28
2752 3436 3440 28
2753 3441 3442 28
2754 3441 3443 28
2755 3441 3444 28
2756 3441 3445 28
2757 3446 3447 28
2758 3446 3448 28
2759 3446 3449 28
2760 3446 3450 28
2761 3451 3452 28
2762 3451 3453 28
2763 3451 3454 28
2764 3451 3455 28
2765 3456 3457 28
2766 3456 3458 28
2767 3456 3459 28
2768 3456 3460 28
2769 3461 3462 28
2770 3461 3463 28
2771 3461 3464 28
2772 3461 3465 28
2773 3466 3467 28
2774 3466 3468 28
2775 3466 3469 28
2776 3466 3470 28
2777 3471 3472 28
2778 3471 3473 28
2779 3471 3474 28
2780 3471 3475 28
2781 3476 3477 28
2782 3476 3478 28
2783 3476 3479 28
2784 3476 3480 28
2785 3481 3482 28
2786 3481 3483 28
2787 3481 3484 28
2788 3481 3485 28
2789 3486 3487 28
2790 3486 3488 28
2791 3486 3489 28
2792 3486 3490 28
2793 3491 3492 28
2794 3491 3493 28
2795 3491 3494 28
2796 3491 3495 28
2797 3496 3497 28
2798 3496 3498 28
2799 3496 3499 28
2800 3496 3500 28
2801 3501 3502 28
2802 3501 3503 28
2803 3501 3504 28
2804 3501 3505 28
2805 3506 3507 28
2806 3506 3508 28
2807 3506 3509 28
2808 3506 3510 28
2809 3511 3512 28
2810 3511 3513 28
2811 3511 3514 28
2812 3511 3515 28
2813 3516 3517 28
2814 3516 3518 28
2815 3516 3519 28
2816 3516 3520 28
2817 3521 3522 28
2818 3521 3523 28
2819 3521 3524 28
2820 3521 3525 28
2821 3526 3527 28
2822 3526 3528 28
2823 3526 3529 28
2824 3526 3530 28
2825 3531 3532 28
2826 3531 3533 28
2827 3531 3534 28
2828 3531 3535 28
2829 3536 3537 28
2830 3536 3538 28
2831 3536 3539 28
2832 3536 3540 28
2833 3541 3542 28
2834 3541 3543 28
2835 3541 3544 28
2836 3541 3545 28
2837 3546 3547 28
2838 3546 3548 28
2839 3546 3549 28
2840 3546 3550 28
2841 3551 3552 28
2842 3551 3553 28
2843 3551 3554 28
2844 3551 3555 28
2845 3556 3557 28
2846 3556 3558 28
2847 3556 3559 28
2848 3556 3560 28
2849 3561 3562 28
2850 3561 3563 28
2851 3561 3564 28
2852 3561 3565 28
2853 3566 3567 28
2854 3566 3568 28
2855 3566 3569 28
2856 3566 3570 28
2857 3571 3572 28
2858 3571 3573 28
2859 3571 3574 28
2860 3571 3575 28
2861 3576 3577 28
2862 3576 3578 28
2863 3576 3579 28
2864 3576 3580 28
2865 3581 3582 28
2866 3581 3583 28
2867 3581 3584 28
2868 3581 3585 28
2869 3586 3587 28
2870 3586 3588 28
2871 3586 3589 28
2872 3586 3590 28
2873 3591 3592 28
2874 3591 3593 28
2875 3591 3594 28
2876 3591 3595 28
2877 3596 3597 28
2878 3596 3598 28
2879 3596 3599 28
2880 3596 3600 28
2881 3601 3602 28
2882 3601 3603 28
2883 3601 3604 28
2884 3601 3605 28
2885 3606 3607 28
2886 3606 3608 28
2887 3606 3609 28
2888 3606 3610 28
2889 3611 3612 28
2890 3611 3613 28
2891 3611 3614 28
2892 3611 3615 28
2893 3616 3617 28
2894 3616 3618 28
2895 3616 3619 28
2896 3616 3620 28
2897 3621 3622 28
2898 3621 3623 28
2899 3621 3624 28
2900 3621 3625 28
2901 3626 3627 28
2902 3626 3628 28
2903 3626 3629 28
2904 3626 3630 28
2905 3631 3632 28
2906 3631 3633 28
2907 3631 3634 28
2908 3631 3635 28
2909 3636 3637 28
2910 3636 3638 28
2911 3636 3639 28
2912 3636 3640 28
2913 3641 3642 28
2914 3641 3643 28
2915 3641 3644 28
2916 3641 3645 28
2917 3646 3647 28
2918 3646 3648 28
2919 3646 3649 28
2920 3646 3650 28
2921 3651 3652 28
2922 3651 3653 28
2923 3651 3654 28
2924 3651 3655 28
2925 3656 3657 28
2926 3656 3658 28
2927 3656 3659 28
2928 3656 3660 28
2929 3661 3662 28
2930 3661 3663 28
2931 3661 3664 28
2932 3661 3665 28
2933 3666 3667 28
2934 3666 3668 28
2935 3666 3669 28
2936 3666 3670 28
2937 3671 3672 28
2938 3671 3673 28
2939 3671 3674 28
2940 3671 3675 28
2941 3676 3677 28
2942 3676 3678 28
2943 3676 3679 28
2944 3676 3680 28
2945 3681 3682 28
2946 3681 3683 28
2947 3681 3684 28
2948 3681 3685 28
2949 3686 3687 28
2950 3686 3688 28
2951 3686 3689 28
2952 3686 3690 28
2953 3691 3692 28
2954 3691 3693 28
2955 3691 3694 28
2956 3691 3695 28
2957 3696 3697 28
2958 3696 3698 28
2959 3696 3699 28
2960 3696 3700 28
2961 3701 3702 28
2962 3701 3703 28
2963 3701 3704 28
2964 3701 3705 28
2965 3706 3707 28
2966 3706 3708 28
2967 3706 3709 28
2968 3706 3710 28
2969 3711 3712 28
2970 3711 3713 28
2971 3711 3714 28
2972 3711 3715 28
2973 3716 3717 28
2974 3716 3718 28
2975 3716 3719 28
2976 3716 3720 28
2977 3721 3722 28
2978 3721 3723 28
2979 3721 3724 28
2980 3721 3725 28
2981 3726 3727 28
2982 3726 3728 28
2983 3726 3729 28
2984 3726 3730 28
2985 3731 3732 28
2986 3731 3733 28
2987 3731 3734 28
2988 3731 3735 28
2989 3736 3737 28
2990 3736 3738 28
2991 3736 3739 28
2992 3736 3740 28
2993 3741 3742 28
2994 3741 3743 28
2995 3741 3744 28
2996 3741 3745 28
2997 3746 3747 28
2998 3746 3748 28
2999 3746 3749 28
3000 3746 3750 28
3001 3751 3752 28
3002 3751 3753 28
3003 3751 3754 28
3004 3751 3755 28
3005 3756 3757 28
3006 3756 3758 28
3007 3756 3759 28
3008 3756 3760 28
3009 3761 3762 28
3010 3761 3763 28
3011 3761 3764 28
3012 3761 3765 28
3013 3766 3767 28
3014 3766 3768 28
3015 3766 3769 28
3016 3766 3770 28
3017 3771 3772 28
3018 3771 3773 28
3019 3771 3774 28
3020 3771 3775 28
3021 3776 3777 28
3022 3776 3778 28
3023 3776 3779 28
3024 3776 3780 28
3025 3781 3782 28
3026 3781 3783 28
3027 3781 3784 28
3028 3781 3785 28
3029 3786 3787 28
3030 3786 3788 28
3031 3786 3789 28
3032 3786 3790 28
3033 3791 3792 28
3034 3791 3793 28
3035 3791 3794 28
3036 3791 3795 28
3037 3796 3797 28
3038 3796 3798 28
3039 3796 3799 28
3040 3796 3800 28
3041 3801 3802 28
3042 3801 3803 28
3043 3801 3804 28
3044 3801 3805 28
3045 3806 3807 28
3046 3806 3808 28
3047 3806 3809 28
3048 3806 3810 28
3049 3811 3812 28
3050 3811 3813 28
3051 3811 3814 28
3052 3811 3815 28
3053 3816 3817 28
3054 3816 3818 28
3055 3816 3819 28
3056 3816 3820 28
3057 3821 3822 28
3058 3821 3823 28
3059 3821 3824 28
3060 3821 3825 28
3061 3826 3827 28
3062 3826 3828 28
3063 3826 3829 28
3064 3826 3830 28
3065 3831 3832 28
3066 3831 3833 28
3067 3831 3834 28
3068 3831 3835 28
3069 3836 3837 28
3070 3836 3838 28
3071 3836 3839 28
3072 3836 3840 28
3073 3841 3842 28
3074 3841 3843 28
3075 3841 3844 28
3076 3841 3845 28
3077 3846 3847 28
3078 3846 3848 28
3079 3846 3849 28
3080 3846 3850 28
3081 3851 3852 28
3082 3851 3853 28
3083 3851 3854 28
3084 3851 3855 28
3085 3856 3857 28
3086 3856 3858 28
3087 3856 3859 28
3088 3856 3860 28
3089 3861 3862 28
3090 3861 3863 28
3091 3861 3864 28
3092 3861 3865 28
3093 3866 3867 28
3094 3866 3868 28
3095 3866 3869 28
3096 3866 3870 28
3097 3871 3872 28
3098 3871 3873 28
3099 3871 3874 28
3100 3871 3875 28
3101 3876 3877 28
3102 3876 3878 28
3103 3876 3879 28
3104 3876 3880 28
3105 3881 3882 28
3106 3881 3883 28
3107 3881 3884 28
3108 3881 3885 28
3109 3886 3887 28
3110 3886 3888 28
3111 3886 3889 28
3112 3886 3890 28
3113 3891 3892 28
3114 3891 3893 28
3115 3891 3894 28
3116 3891 3895 28
3117 3896 3897 28
3118 3896 3898 28
3119 3896 3899 28
3120 3896 3900 28
3121 3901 3902 28
3122 3901 3903 28
3123 3901 3904 28
3124 3901 3905 28
3125 3906 3907 28
3126 3906 3908 28
3127 3906 3909 28
3128 3906 3910 28
3129 3911 3912 28
3130 3911 3913 28
3131 3911 3914 28
3132 3911 3915 28
3133 3916 3917 28
3134 3916 3918 28
3135 3916 3919 28
3136 3916 3920 28
3137 3921 3922 28
3138 3921 3923 28
3139 3921 3924 28
3140 3921 3925 28
3141 3926 3927 28
3142 3926 3928 28
3143 3926 3929 28
3144 3926 3930 28
3145 3931 3932 28
3146 3931 3933 28
3147 3931 3934 28
3148 3931 3935 28
3149 3936 3937 28
3150 3936 3938 28
3151 3936 3939 28
3152 3936 3940 28
3153 3941 3942 28
3154 3941 3943 28
3155 3941 3944 28
3156 3941 3945 28
3157 3946 3947 28
3158 3946 3948 28
3159 3946 3949 28
3160 3946 3950 28
3161 3951 3952 28
3162 3951 3953 28
3163 3951 3954 28
3164 3951 3955 28
3165 3956 3957 28
3166 3956 3958 28
3167 3956 3959 28
3168 3956 3960 28
3169 3961 3962 28
3170 3961 3963 28
3171 3961 3964 28
3172 3961 3965 28
3173 3966 3967 28
3174 3966 3968 28
3175 3966 3969 28
3176 3966 3970 28
3177 3971 3972 28
3178 3971 3973 28
3179 3971 3974 28
3180 3971 3975 28
3181 3976 3977 28
3182 3976 3978 28
3183 3976 3979 28
3184 3976 3980 28
3185 3981 3982 28
3186 3981 3983 28
3187 3981 3984 28
3188 3981 3985 28
3189 3986 3987 28
3190 3986 3988 28
3191 3986 3989 28
3192 3986 3990 28
3193 3991 3992 28
3194 3991 3993 28
3195 3991 3994 28
3196 3991 3995 28
3197 3996 3997 28
3198 3996 3998 28
3199 3996 3999 28
3200 3996 4000 28
3201 4001 4002 28
3202 4001 4003 28
3203 4001 4004 28
3204 4001 4005 28
3205 4006 4007 28
3206 4006 4008 28
3207 4006 4009 28
3208 4006 4010 28
3209 4011 4012 28
3210 4011 4013 28
3211 4011 4014 28
3212 4011 4015 28
3213 4016 4017 28
3214 4016 4018 28
3215 4016 4019 28
3216 4016 4020 28
3217 4021 4022 28
3218 4021 4023 28
3219 4021 4024 28
3220 4021 4025 28
3221 4026 4027 28
3222 4026 4028 28
3223 4026 4029 28
3224 4026 4030 28
3225 4031 4032 28
3226 4031 4033 28
3227 4031 4034 28
3228 4031 4035 28
3229 4036 4037 28
3230 4036 4038 28
3231 4036 4039 28
3232 4036 4040 28
3233 4041 4042 28
3234 4041 4043 28
3235 4041 4044 28
3236 4041 4045 28
3237 4046 4047 28
3238 4046 4048 28
3239 4046 4049 28
3240 4046 4050 28
3241 4051 4052 28
3242 4051 4053 28
3243 4051 4054 28
3244 4051 4055 28
3245 4056 4057 28
3246 4056 4058 28
3247 4056 4059 28
3248 4056 4060 28
3249 4061 4062 28
3250 4061 4063 28
3251 4061 4064 28
3252 4061 4065 28
3253 4066 4067 28
3254 4066 4068 28
3255 4066 4069 28
3256 4066 4070 28
3257 4071 4072 28
3258 4071 4073 28
3259 4071 4074 28
3260 4071 4075 28
3261 4076 4077 28
3262 4076 4078 28
3263 4076 4079 28
3264 4076 4080 28
3265 4081 4082 28
3266 4081 4083 28
3267 4081 4084 28
3268 4081 4085 28
3269 4086 4087 28
3270 4086 4088 28
3271 4086 4089 28
3272 4086 4090 28
3273 4091 4092 28
3274 4091 4093 28
3275 4091 4094 28
3276 4091 4095 28
3277 4096 4097 28
3278 4096 4098 28
3279 4096 4099 28
3280 4096 4100 28
3281 4101 4102 28
3282 4101 4103 28
3283 4101 4104 28
3284 4101 4105 28
3285 4106 4107 28
3286 4106 4108 28
3287 4106 4109 28
3288 4106 4110 28
3289 4111 4112 28
3290 4111 4113 28
3291 4111 4114 28
3292 4111 4115 28
3293 4116 4117 28
3294 4116 4118 28
3295 4116 4119 28
3296 4116 4120 28
3297 4121 4122 28
3298 4121 4123 28
3299 4121 4124 28
3300 4121 4125 28
3301 4126 4127 28
3302 4126 4128 28
3303 4126 4129 28
3304 4126 4130 28
3305 4131 4132 28
3306 4131 4133 28
3307 4131 4134 28
3308 4131 4135 28
3309 4136 4137 28
3310 4136 4138 28
3311 4136 4139 28
3312 4136 4140 28
3313 4141 4142 28
3314 4141 4143 28
3315 4141 4144 28
3316 4141 4145 28
3317 4146 4147 28
3318 4146 4148 28
3319 4146 4149 28
3320 4146 4150 28
3321 4151 4152 28
3322 4151 4153 28
3323 4151 4154 28
3324 4151 4155 28
3325 4156 4157 28
3326 4156 4158 28
3327 4156 4159 28
3328 4156 4160 28
3329 4161 4162 28
3330 4161 4163 28
3331 4161 4164 28
3332 4161 4165 28
3333 4166 4167 28
3334 4166 4168 28
3335 4166 4169 28
3336 4166 4170 28
3337 4171 4172 28
3338 4171 4173 28
3339 4171 4174 28
3340 4171 4175 28
3341 4176 4177 28
3342 4176 4178 28
3343 4176 4179 28
3344 4176 4180 28
3345 4181 4182 28
3346 4181 4183 28
3347 4181 4184 28
3348 4181 4185 28
3349 4186 4187 28
3350 4186 4188 28
3351 4186 4189 28
3352 4186 4190 28
3353 4191 4192 28
3354 4191 4193 28
3355 4191 4194 28
3356 4191 4195 28
3357 4196 4197 28
3358 4196 4198 28
3359 4196 4199 28
3360 4196 4200 28
3361 4201 4202 28
3362 4201 4203 28
3363 4201 4204 28
3364 4201 4205 28
3365 4206 4207 28
3366 4206 4208 28
3367 4206 4209 28
3368 4206 4210 28
3369 4211 4212 28
3370 4211 4213 28
3371 4211 4214 28
3372 4211 4215 28
3373 4216 4217 28
3374 4216 4218 28
3375 4216 4219 28
3376 4216 4220 28
3377 4221 4222 28
3378 4221 4223 28
3379 4221 4224 28
3380 4221 4225 28
3381 4226 4227 28
3382 4226 4228 28
3383 4226 4229 28
3384 4226 4230 28
3385 4231 4232 28
3386 4231 4233 28
3387 4231 4234 28
3388 4231 4235 28
3389 4236 4237 28
3390 4236 4238 28
3391 4236 4239 28
3392 4236 4240 28
3393 4241 4242 28
3394 4241 4243 28
3395 4241 4244 28
3396 4241 4245 28
3397 4246 4247 28
3398 4246 4248 28
3399 4246 4249 28
3400 4246 4250 28
3401 4251 4252 28
3402 4251 4253 28
3403 4251 4254 28
3404 4251 4255 28
3405 4256 4257 28
3406 4256 4258 28
3407 4256 4259 28
3408 4256 4260 28
3409 4261 4262 28
3410 4261 4263 28
3411 4261 4264 28
3412 4261 4265 28
3413 4266 4267 28
3414 4266 4268 28
3415 4266 4269 28
3416 4266 4270 28
3417 4271 4272 28
3418 4271 4273 28
3419 4271 4274 28
3420 4271 4275 28
3421 4276 4277 28
3422 4276 4278 28
3423 4276 4279 28
3424 4276 4280 28
3425 4281 4282 28
3426 4281 4283 28
3427 4281 4284 28
3428 4281 4285 28
3429 4286 4287 28
3430 4286 4288 28
3431 4286 4289 28
3432 4286 4290 28
3433 4291 4292 28
3434 4291 4293 28
3435 4291 4294 28
3436 4291 4295 28
3437 4296 4297 28
3438 4296 4298 28
3439 4296 4299 28
3440 4296 4300 28
3441 4301 4302 28
3442 4301 4303 28
3443 4301 4304 28
3444 4301 4305 28
3445 4306 4307 28
3446 4306 4308 28
3447 4306 4309 28
3448 4306 4310 28
3449 4311 4312 28
3450 4311 4313 28
3451 4311 4314 28
3452 4311 4315 28
3453 4316 4317 28
3454 4316 4318 28
3455 4316 4319 28
3456 4316 4320 28
3457 4321 4322 28
3458 4321 4323 28
3459 4321 4324 28
3460 4321 4325 28
3461 4326 4327 28
3462 4326 4328 28
3463 4326 4329 28
3464 4326 4330 28
3465 4331 4332 28
3466 4331 4333 28
3467 4331 4334 28
3468 4331 4335 28
3469 4336 4337 28
3470 4336 4338 28
3471 4336 4339 28
3472 4336 4340 28
3473 4341 4342 28
3474 4341 4343 28
3475 4341 4344 28
3476 4341 4345 28
3477 4346 4347 28
3478 4346 4348 28
3479 4346 4349 28
3480 4346 4350 28
3481 4351 4352 28
3482 4351 4353 28
3483 4351 4354 28
3484 4351 4355 28
3485 4356 4357 28
3486 4356 4358 28
3487 4356 4359 28
3488 4356 4360 28
3489 4361 4362 28
3490 4361 4363 28
3491 4361 4364 28
3492 4361 4365 28
3493 4366 4367 28
3494 4366 4368 28
3495 4366 4369 28
3496 4366 4370 28
3497 4371 4372 28
3498 4371 4373 28
3499 4371 4374 28
3500 4371 4375 28
3501 4376 4377 28
3502 4376 4378 28
3503 4376 4379 28
3504 4376 4380 28
3505 4381 4382 28
3506 4381 4383 28
3507 4381 4384 28
3508 4381 4385 28
3509 4386 4387 28
3510 4386 4388 28
3511 4386 4389 28
3512 4386 4390 28
3513 4391 4392 28
3514 4391 4393 28
3515 4391 4394 28
3516 4391 4395 28
3517 4396 4397 28
3518 4396 4398 28
3519 4396 4399 28
3520 4396 4400 28
3521 4401 4402 28
3522 4401 4403 28
3523 4401 4404 28
3524 4401 4405 28
3525 4406 4407 28
3526 4406 4408 28
3527 4406 4409 28
3528 4406 4410 28
3529 4411 4412 28
3530 4411 4413 28
3531 4411 4414 28
3532 4411 4415 28
3533 4416 4417 28
3534 4416 4418 28
3535 4416 4419 28
3536 4416 4420 28
3537 4421 4422 28
3538 4421 4423 28
3539 4421 4424 28
3540 4421 4425 28
3541 4426 4427 28
3542 4426 4428 28
3543 4426 4429 28
3544 4426 4430 28
3545 4431 4432 28
3546 4431 4433 28
3547 4431 4434 28
3548 4431 4435 28
3549 4436 4437 28
3550 4436 4438 28
3551 4436 4439 28
3552 4436 4440 28
3553 4441 4442 28
3554 4441 4443 28
3555 4441 4444 28
3556 4441 4445 28
3557 4446 4447 28
3558 4446 4448 28
3559 4446 4449 28
3560 4446 4450 28
3561 4451 4452 28
3562 4451 4453 28
3563 4451 4454 28
3564 4451 4455 28
3565 4456 4457 28
3566 4456 4458 28
3567 4456 4459 28
3568 4456 4460 28
3569 4461 4462 28
3570 4461 4463 28
3571 4461 4464 28
3572 4461 4465 28
3573 4466 4467 28
3574 4466 4468 28
3575 4466 4469 28
3576 4466 4470 28
3577 4471 4472 28
3578 4471 4473 28
3579 4471 4474 28
3580 4471 4475 28
3581 4476 4477 28
3582 4476 4478 28
3583 4476 4479 28
3584 4476 4480 28
3585 4481 4482 28
3586 4481 4483 28
3587 4481 4484 28
3588 4481 4485 28
3589 4486 4487 28
3590 4486 4488 28
3591 4486 4489 28
3592 4486 4490 28
3593 4491 4492 28
3594 4491 4493 28
3595 4491 4494 28
3596 4491 4495 28
3597 4496 4497 28
3598 4496 4498 28
3599 4496 4499 28
3600 4496 4500 28
3601 4501 4502 28
3602 4501 4503 28
3603 4501 4504 28
3604 4501 4505 28
3605 4506 4507 28
3606 4506 4508 28
3607 4506 4509 28
3608 4506 4510 28
3609 4511 4512 28
3610 4511 4513 28
3611 4511 4514 28
3612 4511 4515 28
3613 4516 4517 28
3614 4516 4518 28
3615 4516 4519 28
3616 4516 4520 28
3617 4521 4522 28
3618 4521 4523 28
3619 4521 4524 28
3620 4521 4525 28
3621 4526 4527 28
3622 4526 4528 28
3623 4526 4529 28
3624 4526 4530 28
3625 4531 4532 28
3626 4531 4533 28
3627 4531 4534 28
3628 4531 4535 28
3629 4536 4537 28
3630 4536 4538 28
3631 4536 4539 28
3632 4536 4540 28
3633 4541 4542 28
3634 4541 4543 28
3635 4541 4544 28
3636 4541 4545 28
3637 4546 4547 28
3638 4546 4548 28
3639 4546 4549 28
3640 4546 4550 28
3641 4551 4552 28
3642 4551 4553 28
3643 4551 4554 28
3644 4551 4555 28
3645 4556 4557 28
3646 4556 4558 28
3647 4556 4559 28
3648 4556 4560 28
3649 4561 4562 28
3650 4561 4563 28
3651 4561 4564 28
3652 4561 4565 28
3653 4566 4567 28
3654 4566 4568 28
3655 4566 4569 28
3656 4566 4570 28
3657 4571 4572 28
3658 4571 4573 28
3659 4571 4574 28
3660 4571 4575 28
3661 4576 4577 28
3662 4576 4578 28
3663 4576 4579 28
3664 4576 4580 28
3665 4581 4582 28
3666 4581 4583 28
3667 4581 4584 28
3668 4581 4585 28
3669 4586 4587 28
3670 4586 4588 28
3671 4586 4589 28
3672 4586 4590 28
3673 4591 4592 28
3674 4591 4593 28
3675 4591 4594 28
3676 4591 4595 28
3677 4596 4597 28
3678 4596 4598 28
3679 4596 4599 28
3680 4596 4600 28
3681 4601 4602 28
3682 4601 4603 28
3683 4601 4604 28
3684 4601 4605 28
3685 4606 4607 28
3686 4606 4608 28
3687 4606 4609 28
3688 4606 4610 28
3689 4611 4612 28
3690 4611 4613 28
3691 4611 4614 28
3692 4611 4615 28
3693 4616 4617 28
3694 4616 4618 28
3695 4616 4619 28
3696 4616 4620 28
3697 4621 4622 28
3698 4621 4623 28
3699 4621 4624 28
3700 4621 4625 28
3701 4626 4627 28
3702 4626 4628 28
3703 4626 4629 28
3704 4626 4630 28
3705 4631 4632 28
3706 4631 4633 28
3707 4631 4634 28
3708 4631 4635 28
3709 4636 4637 28
3710 4636 4638 28
3711 4636 4639 28
3712 4636 4640 28
3713 4641 4642 28
3714 4641 4643 28
3715 4641 4644 28
3716 4641 4645 28
3717 4646 4647 28
3718 4646 4648 28
3719 4646 4649 28
3720 4646 4650 28
3721 4651 4652 28
3722 4651 4653 28
3723 4651 4654 28
3724 4651 4655 28
3725 4656 4657 28
3726 4656 4658 28
3727 4656 4659 28
3728 4656 4660 28
3729 4661 4662 28
3730 4661 4663 28
3731 4661 4664 28
3732 4661 4665 28
3733 4666 4667 28
3734 4666 4668 28
3735 4666 4669 28
3736 4666 4670 28
3737 4671 4672 28
3738 4671 4673 28
3739 4671 4674 28
3740 4671 4675 28
3741 4676 4677 28
3742 4676 4678 28
3743 4676 4679 28
3744 4676 4680 28
3745 4681 4682 28
3746 4681 4683 28
3747 4681 4684 28
3748 4681 4685 28
3749 4686 4687 28
3750 4686 4688 28
3751 4686 4689 28
3752 4686 4690 28
3753 4691 4692 28
3754 4691 4693 28
3755 4691 4694 28
3756 4691 4695 28
3757 4696 4697 28
3758 4696 4698 28
3759 4696 4699 28
3760 4696 4700 28
3761 4701 4702 28
3762 4701 4703 28
3763 4701 4704 28
3764 4701 4705 28
3765 4706 4707 28
3766 4706 4708 28
3767 4706 4709 28
3768 4706 4710 28
3769 4711 4712 28
3770 4711 4713 28
3771 4711 4714 28
3772 4711 4715 28
3773 4716 4717 28
3774 4716 4718 28
3775 4716 4719 28
3776 4716 4720 28
3777 4721 4722 28
3778 4721 4723 28
3779 4721 4724 28
3780 4721 4725 28
3781 4726 4727 28
3782 4726 4728 28
3783 4726 4729 28
3784 4726 4730 28
3785 4731 4732 28
3786 4731 4733 28
3787 4731 4734 28
3788 4731 4735 28
3789 4736 4737 28
3790 4736 4738 28
3791 4736 4739 28
3792 4736 4740 28
3793 4741 4742 28
3794 4741 4743 28
3795 4741 4744 28
3796 4741 4745 28
3797 4746 4747 28
3798 4746 4748 28
3799 4746 4749 28
3800 4746 4750 28
3801 4751 4752 28
3802 4751 4753 28
3803 4751 4754 28
3804 4751 4755 28
3805 4756 4757 28
3806 4756 4758 28
3807 4756 4759 28
3808 4756 4760 28
3809 4761 4762 28
3810 4761 4763 28
3811 4761 4764 28
3812 4761 4765 28
3813 4766 4767 28
3814 4766 4768 28
3815 4766 4769 28
3816 4766 4770 28
3817 4771 4772 28
3818 4771 4773 28
3819 4771 4774 28
3820 4771 4775 28
3821 4776 4777 28
3822 4776 4778 28
3823 4776 4779 28
3824 4776 4780 28
3825 4781 4782 28
3826 4781 4783 28
3827 4781 4784 28
3828 4781 4785 28
3829 4786 4787 28
3830 4786 4788 28
3831 4786 4789 28
3832 4786 4790 28
3833 4791 4792 28
3834 4791 4793 28
3835 4791 4794 28
3836 4791 4795 28
3837 4796 4797 28
3838 4796 4798 28
3839 4796 4799 28
3840 4796 4800 28
3841 4801 4802 28
3842 4801 4803 28
3843 4801 4804 28
3844 4801 4805 28
3845 4806 4807 28
3846 4806 4808 28
3847 4806 4809 28
3848 4806 4810 28
3849 4811 4812 28
3850 4811 4813 28
3851 4811 4814 28
3852 4811 4815 28
3853 4816 4817 28
3854 4816 4818 28
3855 4816 4819 28
3856 4816 4820 28
3857 4821 4822 28
3858 4821 4823 28
3859 4821 4824 28
3860 4821 4825 28
3861 4826 4827 28
3862 4826 4828 28
3863 4826 4829 28
3864 4826 4830 28
3865 4831 4832 28
3866 4831 4833 28
3867 4831 4834 28
3868 4831 4835 28
3869 4836 4837 28
3870 4836 4838 28
3871 4836 4839 28
3872 4836 4840 28
3873 4841 4842 28
3874 4841 4843 28
3875 4841 4844 28
3876 4841 4845 28
3877 4846 4847 28
3878 4846 4848 28
3879 4846 4849 28
3880 4846 4850 28
3881 4851 4852 28
3882 4851 4853 28
3883 4851 4854 28
3884 4851 4855 28
3885 4856 4857 28
3886 4856 4858 28
3887 4856 4859 28
3888 4856 4860 28
3889 4861 4862 28
3890 4861 4863 28
3891 4861 4864 28
3892 4861 4865 28
3893 4866 4867 28
3894 4866 4868 28
3895 4866 4869 28
3896 4866 4870 28
3897 4871 4872 28
3898 4871 4873 28
3899 4871 4874 28
3900 4871 4875 28
3901 4876 4877 28
3902 4876 4878 28
3903 4876 4879 28
3904 4876 4880 28
3905 4881 4882 28
3906 4881 4883 28
3907 4881 4884 28
3908 4881 4885 28
3909 4886 4887 28
3910 4886 4888 28
3911 4886 4889 28
3912 4886 4890 28
3913 4891 4892 28
3914 4891 4893 28
3915 4891 4894 28
3916 4891 4895 28
3917 4896 4897 28
3918 4896 4898 28
3919 4896 4899 28
3920 4896 4900 28
3921 4901 4902 28
3922 4901 4903 28
3923 4901 4904 28
3924 4901 4905 28
3925 4906 4907 28
3926 4906 4908 28
3927 4906 4909 28
3928 4906 4910 28
3929 4911 4912 28
3930 4911 4913 28
3931 4911 4914 28
3932 4911 4915 28
3933 4916 4917 28
3934 4916 4918 28
3935 4916 4919 28
3936 4916 4920 28
3937 4921 4922 28
3938 4921 4923 28
3939 4921 4924 28
3940 4921 4925 28
3941 4926 4927 28
3942 4926 4928 28
3943 4926 4929 28
3944 4926 4930 28
3945 4931 4932 28
3946 4931 4933 28
3947 4931 4934 28
3948 4931 4935 28
3949 4936 4937 28
3950 4936 4938 28
3951 4936 4939 28
3952 4936 4940 28
3953 4941 4942 28
3954 4941 4943 28
3955 4941 4944 28
3956 4941 4945 28
3957 4946 4947 28
3958 4946 4948 28
3959 4946 4949 28
3960 4946 4950 28
3961 4951 4952 28
3962 4951 4953 28
3963 4951 4954 28
3964 4951 4955 28
3965 4956 4957 28
3966 4956 4958 28
3967 4956 4959 28
3968 4956 4960 28
3969 4961 4962 28
3970 4961 4963 28
3971 4961 4964 28
3972 4961 4965 28
3973 4966 4967 28
3974 4966 4968 28
3975 4966 4969 28
3976 4966 4970 28
3977 4971 4972 28
3978 4971 4973 28
3979 4971 4974 28
3980 4971 4975 28
3981 4976 4977 28
3982 4976 4978 28
3983 4976 4979 28
3984 4976 4980 28
3985 4981 4982 28
3986 4981 4983 28
3987 4981 4984 28
3988 4981 4985 28
3989 4986 4987 28
3990 4986 4988 28
3991 4986 4989 28
3992 4986 4990 28
3993 4991 4992 28
3994 4991 4993 28
3995 4991 4994 28
3996 4991 4995 28
3997 4996 4997 28
3998 4996 4998 28
3999 4996 4999 28
4000 4996 5000 28
4001 5001 5002 28
4002 5001 5003 28
4003 5001 5004 28
4004 5001 5005 28
4005 5006 5007 28
4006 5006 5008 28
4007 5006 5009 28
4008 5006 5010 28
4009 5011 5012 28
4010 5011 5013 28
4011 5011 5014 28
4012 5011 5015 28
4013 5016 5017 28
4014 5016 5018 28
4015 5016 5019 28
4016 5016 5020 28
4017 5021 5022 28
4018 5021 5023 28
4019 5021 5024 28
4020 5021 5025 28
4021 5026 5027 28
4022 5026 5028 28
4023 5026 5029 28
4024 5026 5030 28
4025 5031 5032 28
4026 5031 5033 28
4027 5031 5034 28
4028 5031 5035 28
4029 5036 5037 28
4030 5036 5038 28
4031 5036 5039 28
4032 5036 5040 28
4033 5041 5042 28
4034 5041 5043 28
4035 5041 5044 28
4036 5041 5045 28
4037 5046 5047 28
4038 5046 5048 28
4039 5046 5049 28
4040 5046 5050 28
4041 5051 5052 28
4042 5051 5053 28
4043 5051 5054 28
4044 5051 5055 28
4045 5056 5057 28
4046 5056 5058 28
4047 5056 5059 28
4048 5056 5060 28
4049 5061 5062 28
4050 5061 5063 28
4051 5061 5064 28
4052 5061 5065 28
4053 5066 5067 28
4054 5066 5068 28
4055 5066 5069 28
4056 5066 5070 28
4057 5071 5072 28
4058 5071 5073 28
4059 5071 5074 28
4060 5071 5075 28
4061 5076 5077 28
4062 5076 5078 28
4063 5076 5079 28
4064 5076 5080 28
4065 5081 5082 28
4066 5081 5083 28
4067 5081 5084 28
4068 5081 5085 28
4069 5086 5087 28
4070 5086 5088 28
4071 5086 5089 28
4072 5086 5090 28
4073 5091 5092 28
4074 5091 5093 28
4075 5091 5094 28
4076 5091 5095 28
4077 5096 5097 28
4078 5096 5098 28
4079 5096 5099 28
4080 5096 5100 28
4081 5101 5102 28
4082 5101 5103 28
4083 5101 5104 28
4084 5101 5105 28
4085 5106 5107 28
4086 5106 5108 28
4087 5106 5109 28
4088 5106 5110 28
4089 5111 5112 28
4090 5111 5113 28
4091 5111 5114 28
4092 5111 5115 28
4093 5116 5117 28
4094 5116 5118 28
4095 5116 5119 28
4096 5116 5120 28
4097 5121 5122 28
4098 5121 5123 28
4099 5121 5124 28
4100 5121 5125 28
4101 5126 5127 28
4102 5126 5128 28
4103 5126 5129 28
4104 5126 5130 28
4105 5131 5132 28
4106 5131 5133 28
4107 5131 5134 28
4108 5131 5135 28
4109 5136 5137 28
4110 5136 5138 28
4111 5136 5139 28
4112 5136 5140 28
4113 5141 5142 28
4114 5141 5143 28
4115 5141 5144 28
4116 5141 5145 28
4117 5146 5147 28
4118 5146 5148 28
4119 5146 5149 28
4120 5146 5150 28
4121 5151 5152 28
4122 5151 5153 28
4123 5151 5154 28
4124 5151 5155 28
4125 5156 5157 28
4126 5156 5158 28
4127 5156 5159 28
4128 5156 5160 28
4129 5161 5162 28
4130 5161 5163 28
4131 5161 5164 28
4132 5161 5165 28
4133 5166 5167 28
4134 5166 5168 28
4135 5166 5169 28
4136 5166 5170 28
4137 5171 5172 28
4138 5171 5173 28
4139 5171 5174 28
4140 5171 5175 28
4141 5176 5177 28
4142 5176 5178 28
4143 5176 5179 28
4144 5176 5180 28
4145 5181 5182 28
4146 5181 5183 28
4147 5181 5184 28
4148 5181 5185 28
4149 5186 5187 28
4150 5186 5188 28
4151 5186 5189 28
4152 5186 5190 28
4153 5191 5192 28
4154 5191 5193 28
4155 5191 5194 28
4156 5191 5195 28
4157 5196 5197 28
4158 5196 5198 28
4159 5196 5199 28
4160 5196 5200 28
4161 5201 5202 28
4162 5201 5203 28
4163 5201 5204 28
4164 5201 5205 28
4165 5206 5207 28
4166 5206 5208 28
4167 5206 5209 28
4168 5206 5210 28
4169 5211 5212 28
4170 5211 5213 28
4171 5211 5214 28
4172 5211 5215 28
4173 5216 5217 28
4174 5216 5218 28
4175 5216 5219 28
4176 5216 5220 28
4177 5221 5222 28
4178 5221 5223 28
4179 5221 5224 28
4180 5221 5225 28
4181 5226 5227 28
4182 5226 5228 28
4183 5226 5229 28
4184 5226 5230 28
4185 5231 5232 28
4186 5231 5233 28
4187 5231 5234 28
4188 5231 5235 28
4189 5236 5237 28
4190 5236 5238 28
4191 5236 5239 28
4192 5236 5240 28
4193 5241 5242 28
4194 5241 5243 28
4195 5241 5244 28
4196 5241 5245 28
4197 5246 5247 28
4198 5246 5248 28
4199 5246 5249 28
4200 5246 5250 28
4201 5251 5252 28
4202 5251 5253 28
4203 5251 5254 28
4204 5251 5255 28
4205 5256 5257 28
4206 5256 5258 28
4207 5256 5259 28
4208 5256 5260 28
4209 5261 5262 28
4210 5261 5263 28
4211 5261 5264 28
4212 5261 5265 28
4213 5266 5267 28
4214 5266 5268 28
4215 5266 5269 28
4216 5266 5270 28
4217 5271 5272 28
4218 5271 5273 28
4219 5271 5274 28
4220 5271 5275 28
4221 5276 5277 28
4222 5276 5278 28
4223 5276 5279 28
4224 5276 5280 28
4225 5281 5282 28
4226 5281 5283 28
4227 5281 5284 28
4228 5281 5285 28
4229 5286 5287 28
4230 5286 5288 28
4231 5286 5289 28
4232 5286 5290 28
4233 5291 5292 28
4234 5291 5293 28
4235 5291 5294 28
4236 5291 5295 28
4237 5296 5297 28
4238 5296 5298 28
4239 5296 5299 28
4240 5296 5300 28
4241 5301 5302 28
4242 5301 5303 28
4243 5301 5304 28
4244 5301 5305 28
4245 5306 5307 28
4246 5306 5308 28
4247 5306 5309 28
4248 5306 5310 28
4249 5311 5312 28
4250 5311 5313 28
4251 5311 5314 28
4252 5311 5315 28
4253 5316 5317 28
4254 5316 5318 28
4255 5316 5319 28
4256 5316 5320 28
4257 5321 5322 28
4258 5321 5323 28
4259 5321 5324 28
4260 5321 5325 28
4261 5326 5327 28
4262 5326 5328 28
4263 5326 5329 28
4264 5326 5330 28
4265 5331 5332 28
4266 5331 5333 28
4267 5331 5334 28
4268 5331 5335 28
4269 5336 5337 28
4270 5336 5338 28
4271 5336 5339 28
4272 5336 5340 28
4273 5341 5342 28
4274 5341 5343 28
4275 5341 5344 28
4276 5341 5345 28
4277 5346 5347 28
4278 5346 5348 28
4279 5346 5349 28
4280 5346 5350 28
4281 5351 5352 28
4282 5351 5353 28
4283 5351 5354 28
4284 5351 5355 28
4285 5356 5357 28
4286 5356 5358 28
4287 5356 5359 28
4288 5356 5360 28
4289 5361 5362 28
4290 5361 5363 28
4291 5361 5364 28
4292 5361 5365 28
4293 5366 5367 28
4294 5366 5368 28
4295 5366 5369 28
4296 5366 5370 28
4297 5371 5372 28
4298 5371 5373 28
4299 5371 5374 28
4300 5371 5375 28
4301 5376 5377 28
4302 5376 5378 28
4303 5376 5379 28
4304 5376 5380 28
4305 5381 5382 28
4306 5381 5383 28
4307 5381 5384 28
4308 5381 5385 28
4309 5386 5387 28
4310 5386 5388 28
4311 5386 5389 28
4312 5386 5390 28
4313 5391 5392 28
4314 5391 5393 28
4315 5391 5394 28
4316 5391 5395 28
4317 5396 5397 28
4318 5396 5398 28
4319 5396 5399 28
4320 5396 5400 28
4321 5401 5402 28
4322 5401 5403 28
4323 5401 5404 28
4324 5401 5405 28
4325 5406 5407 28
4326 5406 5408 28
4327 5406 5409 28
4328 5406 5410 28
4329 5411 5412 28
4330 5411 5413 28
4331 5411 5414 28
4332 5411 5415 28
4333 5416 5417 28
4334 5416 5418 28
4335 5416 5419 28
4336 5416 5420 28
4337 5421 5422 28
4338 5421 5423 28
4339 5421 5424 28
4340 5421 5425 28
4341 5426 5427 28
4342 5426 5428 28
4343 5426 5429 28
4344 5426 5430 28
4345 5431 5432 28
4346 5431 5433 28
4347 5431 5434 28
4348 5431 5435 28
4349 5436 5437 28
4350 5436 5438 28
4351 5436 5439 28
4352 5436 5440 28
4353 5441 5442 28
4354 5441 5443 28
4355 5441 5444 28
4356 5441 5445 28
4357 5446 5447 28
4358 5446 5448 28
4359 5446 5449 28
4360 5446 5450 28
4361 5451 5452 28
4362 5451 5453 28
4363 5451 5454 28
4364 5451 5455 28
4365 5456 5457 28
4366 5456 5458 28
4367 5456 5459 28
4368 5456 5460 28
4369 5461 5462 28
4370 5461 5463 28
4371 5461 5464 28
4372 5461 5465 28
4373 5466 5467 28
4374 5466 5468 28
4375 5466 5469 28
4376 5466 5470 28
4377 5471 5472 28
4378 5471 5473 28
4379 5471 5474 28
4380 5471 5475 28
4381 5476 5477 28
4382 5476 5478 28
4383 5476 5479 28
4384 5476 5480 28
4385 5481 5482 28
4386 5481 5483 28
4387 5481 5484 28
4388 5481 5485 28
4389 5486 5487 28
4390 5486 5488 28
4391 5486 5489 28
4392 5486 5490 28
4393 5491 5492 28
4394 5491 5493 28
4395 5491 5494 28
4396 5491 5495 28
4397 5496 5497 28
4398 5496 5498 28
4399 5496 5499 28
4400 5496 5500 28
4401 5501 5502 28
4402 5501 5503 28
4403 5501 5504 28
4404 5501 5505 28
4405 5506 5507 28
4406 5506 5508 28
4407 5506 5509 28
4408 5506 5510 28
4409 5511 5512 28
4410 5511 5513 28
4411 5511 5514 28
4412 5511 5515 28
4413 5516 5517 28
4414 5516 5518 28
4415 5516 5519 28
4416 5516 5520 28
4417 5521 5522 28
4418 5521 5523 28
4419 5521 5524 28
4420 5521 5525 28
4421 5526 5527 28
4422 5526 5528 28
4423 5526 5529 28
4424 5526 5530 28
4425 5531 5532 28
4426 5531 5533 28
4427 5531 5534 28
4428 5531 5535 28
4429 5536 5537 28
4430 5536 5538 28
4431 5536 5539 28
4432 5536 5540 28
4433 5541 5542 28
4434 5541 5543 28
4435 5541 5544 28
4436 5541 5545 28
4437 5546 5547 28
4438 5546 5548 28
4439 5546 5549 28
4440 5546 5550 28
4441 5551 5552 28
4442 5551 5553 28
4443 5551 5554 28
4444 5551 5555 28
4445 5556 5557 28
4446 5556 5558 28
4447 5556 5559 28
4448 5556 5560 28
4449 5561 5562 28
4450 5561 5563 28
4451 5561 5564 28
4452 5561 5565 28
4453 5566 5567 28
4454 5566 5568 28
4455 5566 5569 28
4456 5566 5570 28
4457 5571 5572 28
4458 5571 5573 28
4459 5571 5574 28
4460 5571 5575 28
4461 5576 5577 28
4462 5576 5578 28
4463 5576 5579 28
4464 5576 5580 28
4465 5581 5582 28
4466 5581 5583 28
4467 5581 5584 28
4468 5581 5585 28
4469 5586 5587 28
4470 5586 5588 28
4471 5586 5589 28
4472 5586 5590 28
4473 5591 5592 28
4474 5591 5593 28
4475 5591 5594 28
4476 5591 5595 28
4477 5596 5597 28
4478 5596 5598 28
4479 5596 5599 28
4480 5596 5600 28
4481 5601 5602 28
4482 5601 5603 28
4483 5601 5604 28
4484 5601 5605 28
4485 5606 5607 28
4486 5606 5608 28
4487 5606 5609 28
4488 5606 5610 28
4489 5611 5612 28
4490 5611 5613 28
4491 5611 5614 28
4492 5611 5615 28
4493 5616 5617 28
4494 5616 5618 28
4495 5616 5619 28
4496 5616 5620 28
4497 5621 5622 28
4498 5621 5623 28
4499 5621 5624 28
4500 5621 5625 28
4501 5626 5627 28
4502 5626 5628 28
4503 5626 5629 28
4504 5626 5630 28
4505 5631 5632 28
4506 5631 5633 28
4507 5631 5634 28
4508 5631 5635 28
4509 5636 5637 28
4510 5636 5638 28
4511 5636 5639 28
4512 5636 5640 28
4513 5641 5642 28
4514 5641 5643 28
4515 5641 5644 28
4516 5641 5645 28
4517 5646 5647 28
4518 5646 5648 28
4519 5646 5649 28
4520 5646 5650 28
4521 5651 5652 28
4522 5651 5653 28
4523 5651 5654 28
4524 5651 5655 28
4525 5656 5657 28
4526 5656 5658 28
4527 5656 5659 28
4528 5656 5660 28
4529 5661 5662 28
4530 5661 5663 28
4531 5661 5664 28
4532 5661 5665 28
4533 5666 5667 28
4534 5666 5668 28
4535 5666 5669 28
4536 5666 5670 28
4537 5671 5672 28
4538 5671 5673 28
4539 5671 5674 28
4540 5671 5675 28
4541 5676 5677 28
4542 5676 5678 28
4543 5676 5679 28
4544 5676 5680 28
4545 5681 5682 28
4546 5681 5683 28
4547 5681 5684 28
4548 5681 5685 28
4549 5686 5687 28
4550 5686 5688 28
4551 5686 5689 28
4552 5686 5690 28
4553 5691 5692 28
4554 5691 5693 28
4555 5691 5694 28
4556 5691 5695 28
4557 5696 5697 28
4558 5696 5698 28
4559 5696 5699 28
4560 5696 5700 28
4561 5701 5702 28
4562 5701 5703 28
4563 5701 5704 28
4564 5701 5705 28
4565 5706 5707 28
4566 5706 5708 28
4567 5706 5709 28
4568 5706 5710 28
4569 5711 5712 28
4570 5711 5713 28
4571 5711 5714 28
4572 5711 5715 28
4573 5716 5717 28
4574 5716 5718 28
4575 5716 5719 28
4576 5716 5720 28
4577 5721 5722 28
4578 5721 5723 28
4579 5721 5724 28
4580 5721 5725 28
4581 5726 5727 28
4582 5726 5728 28
4583 5726 5729 28
4584 5726 5730 28
4585 5731 5732 28
4586 5731 5733 28
4587 5731 5734 28
4588 5731 5735 28
4589 5736 5737 28
4590 5736 5738 28
4591 5736 5739 28
4592 5736 5740 28
4593 5741 5742 28
4594 5741 5743 28
4595 5741 5744 28
4596 5741 5745 28
4597 5746 5747 28
4598 5746 5748 28
4599 5746 5749 28
4600 5746 5750 28
4601 5751 5752 28
4602 5751 5753 28
4603 5751 5754 28
4604 5751 5755 28
4605 5756 5757 28
4606 5756 5758 28
4607 5756 5759 28
4608 5756 5760 28
4609 5761 5762 28
4610 5761 5763 28
4611 5761 5764 28
4612 5761 5765 28
4613 5766 5767 28
4614 5766 5768 28
4615 5766 5769 28
4616 5766 5770 28
4617 5771 5772 28
4618 5771 5773 28
4619 5771 5774 28
4620 5771 5775 28
4621 5776 5777 28
4622 5776 5778 28
4623 5776 5779 28
4624 5776 5780 28
4625 5781 5782 28
4626 5781 5783 28
4627 5781 5784 28
4628 5781 5785 28
4629 5786 5787 28
4630 5786 5788 28
4631 5786 5789 28
4632 5786 5790 28
4633 5791 5792 28
4634 5791 5793 28
4635 5791 5794 28
4636 5791 5795 28
4637 5796 5797 28
4638 5796 5798 28
4639 5796 5799 28
4640 5796 5800 28
4641 5801 5802 28
4642 5801 5803 28
4643 5801 5804 28
4644 5801 5805 28
4645 5806 5807 28
4646 5806 5808 28
4647 5806 5809 28
4648 5806 5810 28
4649 5811 5812 28
4650 5811 5813 28
4651 5811 5814 28
4652 5811 5815 28
4653 5816 5817 28
4654 5816 5818 28
4655 5816 5819 28
4656 5816 5820 28
4657 5821 5822 28
4658 5821 5823 28
4659 5821 5824 28
4660 5821 5825 28
4661 5826 5827 28
4662 5826 5828 28
4663 5826 5829 28
4664 5826 5830 28
4665 5831 5832 28
4666 5831 5833 28
4667 5831 5834 28
4668 5831 5835 28
4669 5836 5837 28
4670 5836 5838 28
4671 5836 5839 28
4672 5836 5840 28
4673 5841 5842 28
4674 5841 5843 28
4675 5841 5844 28
4676 5841 5845 28
4677 5846 5847 28
4678 5846 5848 28
4679 5846 5849 28
4680 5846 5850 28
4681 5851 5852 28
4682 5851 5853 28
4683 5851 5854 28
4684 5851 5855 28
4685 5856 5857 28
4686 5856 5858 28
4687 5856 5859 28
4688 5856 5860 28
4689 5861 5862 28
4690 5861 5863 28
4691 5861 5864 28
4692 5861 5865 28
4693 5866 5867 28
4694 5866 5868 28
4695 5866 5869 28
4696 5866 5870 28
4697 5871 5872 28
4698 5871 5873 28
4699 5871 5874 28
4700 5871 5875 28
4701 5876 5877 28
4702 5876 5878 28
4703 5876 5879 28
4704 5876 5880 28
4705 5881 5882 28
4706 5881 5883 28
4707 5881 5884 28
4708 5881 5885 28
4709 5886 5887 28
4710 5886 5888 28
4711 5886 5889 28
4712 5886 5890 28
4713 5891 5892 28
4714 5891 5893 28
4715 5891 5894 28
4716 5891 5895 28
4717 5896 5897 28
4718 5896 5898 28
4719 5896 5899 28
4720 5896 5900 28
4721 5901 5902 28
4722 5901 5903 28
4723 5901 5904 28
4724 5901 5905 28
4725 5906 5907 28
4726 5906 5908 28
4727 5906 5909 28
4728 5906 5910 28
4729 5911 5912 28
4730 5911 5913 28
4731 5911 5914 28
4732 5911 5915 28
4733 5916 5917 28
4734 5916 5918 28
4735 5916 5919 28
4736 5916 5920 28
4737 5921 5922 28
4738 5921 5923 28
4739 5921 5924 28
4740 5921 5925 28
4741 5926 5927 28
4742 5926 5928 28
4743 5926 5929 28
4744 5926 5930 28
4745 5931 5932 28
4746 5931 5933 28
4747 5931 5934 28
4748 5931 5935 28
4749 5936 5937 28
4750 5936 5938 28
4751 5936 5939 28
4752 5936 5940 28
4753 5941 5942 28
4754 5941 5943 28
4755 5941 5944 28
4756 5941 5945 28
4757 5946 5947 28
4758 5946 5948 28
4759 5946 5949 28
4760 5946 5950 28
4761 5951 5952 28
4762 5951 5953 28
4763 5951 5954 28
4764 5951 5955 28
4765 5956 5957 28
4766 5956 5958 28
4767 5956 5959 28
4768 5956 5960 28
4769 5961 5962 28
4770 5961 5963 28
4771 5961 5964 28
4772 5961 5965 28
4773 5966 5967 28
4774 5966 5968 28
4775 5966 5969 28
4776 5966 5970 28
4777 5971 5972 28
4778 5971 5973 28
4779 5971 5974 28
4780 5971 5975 28
4781 5976 5977 28
4782 5976 5978 28
4783 5976 5979 28
4784 5976 5980 28
4785 5981 5982 28
4786 5981 5983 28
4787 5981 5984 28
4788 5981 5985 28
4789 5986 5987 28
4790 5986 5988 28
4791 5986 5989 28
4792 5986 5990 28
4793 5991 5992 28
4794 5991 5993 28
4795 5991 5994 28
4796 5991 5995 28
4797 5996 5997 28
4798 5996 5998 28
4799 5996 5999 28
4800 5996 6000 28
4801 6001 6002 28
4802 6001 6003 28
4803 6001 6004 28
4804 6001 6005 28
4805 6006 6007 28
4806 6006 6008 28
4807 6006 6009 28
4808 6006 6010 28
4809 6011 6012 28
4810 6011 6013 28
4811 6011 6014 28
4812 6011 6015 28
4813 6016 6017 28
4814 6016 6018 28
4815 6016 6019 28
4816 6016 6020 28
4817 6021 6022 28
4818 6021 6023 28
4819 6021 6024 28
4820 6021 6025 28
4821 6026 6027 28
4822 6026 6028 28
4823 6026 6029 28
4824 6026 6030 28
4825 6031 6032 28
4826 6031 6033 28
4827 6031 6034 28
4828 6031 6035 28
4829 6036 6037 28
4830 6036 6038 28
4831 6036 6039 28
4832 6036 6040 28
4833 6041 6042 28
4834 6041 6043 28
4835 6041 6044 28
4836 6041 6045 28
4837 6046 6047 28
4838 6046 6048 28
4839 6046 6049 28
4840 6046 6050 28
4841 6051 6052 28
4842 6051 6053 28
4843 6051 6054 28
4844 6051 6055 28
4845 6056 6057 28
4846 6056 6058 28
4847 6056 6059 28
4848 6056 6060 28
4849 6061 6062 28
4850 6061 6063 28
4851 6061 6064 28
4852 6061 6065 28
4853 6066 6067 28
4854 6066 6068 28
4855 6066 6069 28
4856 6066 6070 28
4857 6071 6072 28
4858 6071 6073 28
4859 6071 6074 28
4860 6071 6075 28
4861 6076 6077 28
4862 6076 6078 28
4863 6076 6079 28
4864 6076 6080 28
4865 6081 6082 28
4866 6081 6083 28
4867 6081 6084 28
4868 6081 6085 28
4869 6086 6087 28
4870 6086 6088 28
4871 6086 6089 28
4872 6086 6090 28
4873 6091 6092 28
4874 6091 6093 28
4875 6091 6094 28
4876 6091 6095 28
4877 6096 6097 28
4878 6096 6098 28
4879 6096 6099 28
4880 6096 6100 28
4881 6101 6102 28
4882 6101 6103 28
4883 6101 6104 28
4884 6101 6105 28
4885 6106 6107 28
4886 6106 6108 28
4887 6106 6109 28
4888 6106 6110 28
4889 6111 6112 28
4890 6111 6113 28
4891 6111 6114 28
4892 6111 6115 28
4893 6116 6117 28
4894 6116 6118 28
4895 6116 6119 28
4896 6116 6120 28
4897 6121 6122 28
4898 6121 6123 28
4899 6121 6124 28
4900 6121 6125 28
4901 6126 6127 28
4902 6126 6128 28
4903 6126 6129 28
4904 6126 6130 28
4905 6131 6132 28
4906 6131 6133 28
4907 6131 6134 28
4908 6131 6135 28
4909 6136 6137 28
4910 6136 6138 28
4911 6136 6139 28
4912 6136 6140 28
4913 6141 6142 28
4914 6141 6143 28
4915 6141 6144 28
4916 6141 6145 28
4917 6146 6147 28
4918 6146 6148 28
4919 6146 6149 28
4920 6146 6150 28
4921 6151 6152 28
4922 6151 6153 28
4923 6151 6154 28
4924 6151 6155 28
4925 6156 6157 28
4926 6156 6158 28
4927 6156 6159 28
4928 6156 6160 28
4929 6161 6162 28
4930 6161 6163 28
4931 6161 6164 28
4932 6161 6165 28
4933 6166 6167 28
4934 6166 6168 28
4935 6166 6169 28
4936 6166 6170 28
4937 6171 6172 28
4938 6171 6173 28
4939 6171 6174 28
4940 6171 6175 28
4941 6176 6177 28
4942 6176 6178 28
4943 6176 6179 28
4944 6176 6180 28
4945 6181 6182 28
4946 6181 6183 28
4947 6181 6184 28
4948 6181 6185 28
4949 6186 6187 28
4950 6186 6188 28
4951 6186 6189 28
4952 6186 6190 28
4953 6191 6192 28
4954 6191 6193 28
4955 6191 6194 28
4956 6191 6195 28
4957 6196 6197 28
4958 6196 6198 28
4959 6196 6199 28
4960 6196 6200 28
4961 6201 6202 28
4962 6201 6203 28
4963 6201 6204 28
4964 6201 6205 28
4965 6206 6207 28
4966 6206 6208 28
4967 6206 6209 28
4968 6206 6210 28
4969 6211 6212 28
4970 6211 6213 28
4971 6211 6214 28
4972 6211 6215 28
4973 6216 6217 28
4974 6216 6218 28
4975 6216 6219 28
4976 6216 6220 28
4977 6221 6222 28
4978 6221 6223 28
4979 6221 6224 28
4980 6221 6225 28
4981 6226 6227 28
4982 6226 6228 28
4983 6226 6229 28
4984 6226 6230 28
4985 6231 6232 28
4986 6231 6233 28
4987 6231 6234 28
4988 6231 6235 28
4989 6236 6237 28
4990 6236 6238 28
4991 6236 6239 28
4992 6236 6240 28
4993 6241 6242 28
4994 6241 6243 28
4995 6241 6244 28
4996 6241 6245 28
4997 6246 6247 28
4998 6246 6248 28
4999 6246 6249 28
5000 6246 6250 28
5001 6251 6252 28
5002 6251 6253 28
5003 6251 6254 28
5004 6251 6255 28
5005 6256 6257 28
5006 6256 6258 28
5007 6256 6259 28
5008 6256 6260 28
5009 6261 6262 28
5010 6261 6263 28
5011 6261 6264 28
5012 6261 6265 28
5013 6266 6267 28
5014 6266 6268 28
5015 6266 6269 28
5016 6266 6270 28
5017 6271 6272 28
5018 6271 6273 28
5019 6271 6274 28
5020 6271 6275 28
5021 6276 6277 28
5022 6276 6278 28
5023 6276 6279 28
5024 6276 6280 28
5025 6281 6282 28
5026 6281 6283 28
5027 6281 6284 28
5028 6281 6285 28
5029 6286 6287 28
5030 6286 6288 28
5031 6286 6289 28
5032 6286 6290 28
5033 6291 6292 28
5034 6291 6293 28
5035 6291 6294 28
5036 6291 6295 28
5037 6296 6297 28
5038 6296 6298 28
5039 6296 6299 28
5040 6296 6300 28
5041 6301 6302 28
5042 6301 6303 28
5043 6301 6304 28
5044 6301 6305 28
5045 6306 6307 28
5046 6306 6308 28
5047 6306 6309 28
5048 6306 6310 28
5049 6311 6312 28
5050 6311 6313 28
5051 6311 6314 28
5052 6311 6315 28
5053 6316 6317 28
5054 6316 6318 28
5055 6316 6319 28
5056 6316 6320 28
5057 6321 6322 28
5058 6321 6323 28
5059 6321 6324 28
5060 6321 6325 28
5061 6326 6327 28
5062 6326 6328 28
5063 6326 6329 28
5064 6326 6330 28
5065 6331 6332 28
5066 6331 6333 28
5067 6331 6334 28
5068 6331 6335 28
5069 6336 6337 28
5070 6336 6338 28
5071 6336 6339 28
5072 6336 6340 28
5073 6341 6342 28
5074 6341 6343 28
5075 6341 6344 28
5076 6341 6345 28
5077 6346 6347 28
5078 6346 6348 28
5079 6346 6349 28
5080 6346 6350 28
5081 6351 6352 28
5082 6351 6353 28
5083 6351 6354 28
5084 6351 6355 28
5085 6356 6357 28
5086 6356 6358 28
5087 6356 6359 28
5088 6356 6360 28
5089 6361 6362 28
5090 6361 6363 28
5091 6361 6364 28
5092 6361 6365 28
5093 6366 6367 28
5094 6366 6368 28
5095 6366 6369 28
5096 6366 6370 28
5097 6371 6372 28
5098 6371 6373 28
5099 6371 6374 28
5100 6371 6375 28
5101 6376 6377 28
5102 6376 6378 28
5103 6376 6379 28
5104 6376 6380 28
5105 6381 6382 28
5106 6381 6383 28
5107 6381 6384 28
5108 6381 6385 28
5109 6386 6387 28
5110 6386 6388 28
5111 6386 6389 28
5112 6386 6390 28
5113 6391 6392 28
5114 6391 6393 28
5115 6391 6394 28
5116 6391 6395 28
5117 6396 6397 28
5118 6396 6398 28
5119 6396 6399 28
5120 6396 6400 28
5121 6401 6402 28
5122 6401 6403 28
5123 6401 6404 28
5124 6401 6405 28
5125 6406 6407 28
5126 6406 6408 28
5127 6406 6409 28
5128 6406 6410 28
5129 6411 6412 28
5130 6411 6413 28
5131 6411 6414 28
5132 6411 6415 28
5133 6416 6417 28
5134 6416 6418 28
5135 6416 6419 28
5136 6416 6420 28
5137 6421 6422 28
5138 6421 6423 28
5139 6421 6424 28
5140 6421 6425 28
5141 6426 6427 28
5142 6426 6428 28
5143 6426 6429 28
5144 6426 6430 28
5145 6431 6432 28
5146 6431 6433 28
5147 6431 6434 28
5148 6431 6435 28
5149 6436 6437 28
5150 6436 6438 28
5151 6436 6439 28
5152 6436 6440 28
5153 6441 6442 28
5154 6441 6443 28
5155 6441 6444 28
5156 6441 6445 28
5157 6446 6447 28
5158 6446 6448 28
5159 6446 6449 28
5160 6446 6450 28
5161 6451 6452 28
5162 6451 6453 28
5163 6451 6454 28
5164 6451 6455 28
5165 6456 6457 28
5166 6456 6458 28
5167 6456 6459 28
5168 6456 6460 28
5169 6461 6462 28
5170 6461 6463 28
5171 6461 6464 28
5172 6461 6465 28
5173 6466 6467 28
5174 6466 6468 28
5175 6466 6469 28
5176 6466 6470 28
5177 6471 6472 28
5178 6471 6473 28
5179 6471 6474 28
5180 6471 6475 28
5181 6476 6477 28
5182 6476 6478 28
5183 6476 6479 28
5184 6476 6480 28
5185 6481 6482 28
5186 6481 6483 28
5187 6481 6484 28
5188 6481 6485 28
5189 6486 6487 28
5190 6486 6488 28
5191 6486 6489 28
5192 6486 6490 28
5193 6491 6492 28
5194 6491 6493 28
5195 6491 6494 28
5196 6491 6495 28
5197 6496 6497 28
5198 6496 6498 28
5199 6496 6499 28
5200 6496 6500 28
5201 6501 6502 28
5202 6501 6503 28
5203 6501 6504 28
5204 6501 6505 28
5205 6506 6507 28
5206 6506 6508 28
5207 6506 6509 28
5208 6506 6510 28
5209 6511 6512 28
5210 6511 6513 28
5211 6511 6514 28
5212 6511 6515 28
5213 6516 6517 28
5214 6516 6518 28
5215 6516 6519 28
5216 6516 6520 28
5217 6521 6522 28
5218 6521 6523 28
5219 6521 6524 28
5220 6521 6525 28
5221 6526 6527 28
5222 6526 6528 28
5223 6526 6529 28
5224 6526 6530 28
5225 6531 6532 28
5226 6531 6533 28
5227 6531 6534 28
5228 6531 6535 28
5229 6536 6537 28
5230 6536 6538 28
5231 6536 6539 28
5232 6536 6540 28
5233 6541 6542 28
5234 6541 6543 28
5235 6541 6544 28
5236 6541 6545 28
5237 6546 6547 28
5238 6546 6548 28
5239 6546 6549 28
5240 6546 6550 28
5241 6551 6552 28
5242 6551 6553 28
5243 6551 6554 28
5244 6551 6555 28
5245 6556 6557 28
5246 6556 6558 28
5247 6556 6559 28
5248 6556 6560 28
5249 6561 6562 28
5250 6561 6563 28
5251 6561 6564 28
5252 6561 6565 28
5253 6566 6567 28
5254 6566 6568 28
5255 6566 6569 28
5256 6566 6570 28
5257 6571 6572 28
5258 6571 6573 28
5259 6571 6574 28
5260 6571 6575 28
5261 6576 6577 28
5262 6576 6578 28
5263 6576 6579 28
5264 6576 6580 28
5265 6581 6582 28
5266 6581 6583 28
5267 6581 6584 28
5268 6581 6585 28
5269 6586 6587 28
5270 6586 6588 28
5271 6586 6589 28
5272 6586 6590 28
5273 6591 6592 28
5274 6591 6593 28
5275 6591 6594 28
5276 6591 6595 28
5277 6596 6597 28
5278 6596 6598 28
5279 6596 6599 28
5280 6596 6600 28
5281 6601 6602 28
5282 6601 6603 28
5283 6601 6604 28
5284 6601 6605 28
5285 6606 6607 28
5286 6606 6608 28
5287 6606 6609 28
5288 6606 6610 28
5289 6611 6612 28
5290 6611 6613 28
5291 6611 6614 28
5292 6611 6615 28
5293 6616 6617 28
5294 6616 6618 28
5295 6616 6619 28
5296 6616 6620 28
5297 6621 6622 28
5298 6621 6623 28
5299 6621 6624 28
5300 6621 6625 28
5301 6626 6627 28
5302 6626 6628 28
5303 6626 6629 28
5304 6626 6630 28
5305 6631 6632 28
5306 6631 6633 28
5307 6631 6634 28
5308 6631 6635 28
5309 6636 6637 28
5310 6636 6638 28
5311 6636 6639 28
5312 6636 6640 28
5313 6641 6642 28
5314 6641 6643 28
5315 6641 6644 28
5316 6641 6645 28
5317 6646 6647 28
5318 6646 6648 28
5319 6646 6649 28
5320 6646 6650 28
5321 6651 6652 28
5322 6651 6653 28
5323 6651 6654 28
5324 6651 6655 28
5325 6656 6657 28
5326 6656 6658 28
5327 6656 6659 28
5328 6656 6660 28
5329 6661 6662 28
5330 6661 6663 28
5331 6661 6664 28
5332 6661 6665 28
5333 6666 6667 28
5334 6666 6668 28
5335 6666 6669 28
5336 6666 6670 28
5337 6671 6672 28
5338 6671 6673 28
5339 6671 6674 28
5340 6671 6675 28
5341 6676 6677 28
5342 6676 6678 28
5343 6676 6679 28
5344 6676 6680 28
5345 6681 6682 28
5346 6681 6683 28
5347 6681 6684 28
5348 6681 6685 28
5349 6686 6687 28
5350 6686 6688 28
5351 6686 6689 28
5352 6686 6690 28
5353 6691 6692 28
5354 6691 6693 28
5355 6691 6694 28
5356 6691 6695 28
5357 6696 6697 28
5358 6696 6698 28
5359 6696 6699 28
5360 6696 6700 28
5361 6701 6702 28
5362 6701 6703 28
5363 6701 6704 28
5364 6701 6705 28
5365 6706 6707 28
5366 6706 6708 28
5367 6706 6709 28
5368 6706 6710 28
5369 6711 6712 28
5370 6711 6713 28
5371 6711 6714 28
5372 6711 6715 28
5373 6716 6717 28
5374 6716 6718 28
5375 6716 6719 28
5376 6716 6720 28
5377 6721 6722 28
5378 6721 6723 28
5379 6721 6724 28
5380 6721 6725 28
5381 6726 6727 28
5382 6726 6728 28
5383 6726 6729 28
5384 6726 6730 28
5385 6731 6732 28
5386 6731 6733 28
5387 6731 6734 28
5388 6731 6735 28
5389 6736 6737 28
5390 6736 6738 28
5391 6736 6739 28
5392 6736 6740 28
5393 6741 6742 28
5394 6741 6743 28
5395 6741 6744 28
5396 6741 6745 28
5397 6746 6747 28
5398 6746 6748 28
5399 6746 6749 28
5400 6746 6750 28
5401 6751 6752 28
5402 6751 6753 28
5403 6751 6754 28
5404 6751 6755 28
5405 6756 6757 28
5406 6756 6758 28
5407 6756 6759 28
5408 6756 6760 28
5409 6761 6762 28
5410 6761 6763 28
5411 6761 6764 28
5412 6761 6765 28
5413 6766 6767 28
5414 6766 6768 28
5415 6766 6769 28
5416 6766 6770 28
5417 6771 6772 28
5418 6771 6773 28
5419 6771 6774 28
5420 6771 6775 28
5421 6776 6777 28
5422 6776 6778 28
5423 6776 6779 28
5424 6776 6780 28
5425 6781 6782 28
5426 6781 6783 28
5427 6781 6784 28
5428 6781 6785 28
5429 6786 6787 28
5430 6786 6788 28
5431 6786 6789 28
5432 6786 6790 28
5433 6791 6792 28
5434 6791 6793 28
5435 6791 6794 28
5436 6791 6795 28
5437 6796 6797 28
5438 6796 6798 28
5439 6796 6799 28
5440 6796 6800 28
5441 6801 6802 28
5442 6801 6803 28
5443 6801 6804 28
5444 6801 6805 28
5445 6806 6807 28
5446 6806 6808 28
5447 6806 6809 28
5448 6806 6810 28
5449 6811 6812 28
5450 6811 6813 28
5451 6811 6814 28
5452 6811 6815 28
5453 6816 6817 28
5454 6816 6818 28
5455 6816 6819 28
5456 6816 6820 28
5457 6821 6822 28
5458 6821 6823 28
5459 6821 6824 28
5460 6821 6825 28
5461 6826 6827 28
5462 6826 6828 28
5463 6826 6829 28
5464 6826 6830 28
5465 6831 6832 28
5466 6831 6833 28
5467 6831 6834 28
5468 6831 6835 28
5469 6836 6837 28
5470 6836 6838 28
5471 6836 6839 28
5472 6836 6840 28
5473 6841 6842 28
5474 6841 6843 28
5475 6841 6844 28
5476 6841 6845 28
5477 6846 6847 28
5478 6846 6848 28
5479 6846 6849 28
5480 6846 6850 28
5481 6851 6852 28
5482 6851 6853 28
5483 6851 6854 28
5484 6851 6855 28
5485 6856 6857 28
5486 6856 6858 28
5487 6856 6859 28
5488 6856 6860 28
5489 6861 6862 28
5490 6861 6863 28
5491 6861 6864 28
5492 6861 6865 28
5493 6866 6867 28
5494 6866 6868 28
5495 6866 6869 28
5496 6866 6870 28
5497 6871 6872 28
5498 6871 6873 28
5499 6871 6874 28
5500 6871 6875 28
5501 6876 6877 28
5502 6876 6878 28
5503 6876 6879 28
5504 6876 6880 28
5505 6881 6882 28
5506 6881 6883 28
5507 6881 6884 28
5508 6881 6885 28
5509 6886 6887 28
5510 6886 6888 28
5511 6886 6889 28
5512 6886 6890 28
5513 6891 6892 28
5514 6891 6893 28
5515 6891 6894 28
5516 6891 6895 28
5517 6896 6897 28
5518 6896 6898 28
5519 6896 6899 28
5520 6896 6900 28
5521 6901 6902 28
5522 6901 6903 28
5523 6901 6904 28
5524 6901 6905 28
5525 6906 6907 28
5526 6906 6908 28
5527 6906 6909 28
5528 6906 6910 28
5529 6911 6912 28
5530 6911 6913 28
5531 6911 6914 28
5532 6911 6915 28
5533 6916 6917 28
5534 6916 6918 28
5535 6916 6919 28
5536 6916 6920 28
5537 6921 6922 28
5538 6921 6923 28
5539 6921 6924 28
5540 6921 6925 28
5541 6926 6927 28
5542 6926 6928 28
5543 6926 6929 28
5544 6926 6930 28
5545 6931 6932 28
5546 6931 6933 28
5547 6931 6934 28
5548 6931 6935 28
5549 6936 6937 28
5550 6936 6938 28
5551 6936 6939 28
5552 6936 6940 28
5553 6941 6942 28
5554 6941 6943 28
5555 6941 6944 28
5556 6941 6945 28
5557 6946 6947 28
5558 6946 6948 28
5559 6946 6949 28
5560 6946 6950 28
5561 6951 6952 28
5562 6951 6953 28
5563 6951 6954 28
5564 6951 6955 28
5565 6956 6957 28
5566 6956 6958 28
5567 6956 6959 28
5568 6956 6960 28
5569 6961 6962 28
5570 6961 6963 28
5571 6961 6964 28
5572 6961 6965 28
5573 6966 6967 28
5574 6966 6968 28
5575 6966 6969 28
5576 6966 6970 28
5577 6971 6972 28
5578 6971 6973 28
5579 6971 6974 28
5580 6971 6975 28
5581 6976 6977 28
5582 6976 6978 28
5583 6976 6979 28
5584 6976 6980 28
5585 6981 6982 28
5586 6981 6983 28
5587 6981 6984 28
5588 6981 6985 28
5589 6986 6987 28
5590 6986 6988 28
5591 6986 6989 28
5592 6986 6990 28
5593 6991 6992 28
5594 6991 6993 28
5595 6991 6994 28
5596 6991 6995 28
5597 6996 6997 28
5598 6996 6998 28
5599 6996 6999 28
5600 6996 7000 28
5601 7001 7002 28
5602 7001 7003 28
5603 7001 7004 28
5604 7001 7005 28
5605 7006 7007 28
5606 7006 7008 28
5607 7006 7009 28
5608 7006 7010 28
5609 7011 7012 28
5610 7011 7013 28
5611 7011 7014 28
5612 7011 7015 28
5613 7016 7017 28
5614 7016 7018 28
5615 7016 7019 28
5616 7016 7020 28
5617 7021 7022 28
5618 7021 7023 28
5619 7021 7024 28
5620 7021 7025 28
5621 7026 7027 28
5622 7026 7028 28
5623 7026 7029 28
5624 7026 7030 28
5625 7031 7032 28
5626 7031 7033 28
5627 7031 7034 28
5628 7031 7035 28
5629 7036 7037 28
5630 7036 7038 28
5631 7036 7039 28
5632 7036 7040 28
5633 7041 7042 28
5634 7041 7043 28
5635 7041 7044 28
5636 7041 7045 28
5637 7046 7047 28
5638 7046 7048 28
5639 7046 7049 28
5640 7046 7050 28
5641 7051 7052 28
5642 7051 7053 28
5643 7051 7054 28
5644 7051 7055 28
5645 7056 7057 28
5646 7056 7058 28
5647 7056 7059 28
5648 7056 7060 28
5649 7061 7062 28
5650 7061 7063 28
5651 7061 7064 28
5652 7061 7065 28
5653 7066 7067 28
5654 7066 7068 28
5655 7066 7069 28
5656 7066 7070 28
5657 7071 7072 28
5658 7071 7073 28
5659 7071 7074 28
5660 7071 7075 28
5661 7076 7077 28
5662 7076 7078 28
5663 7076 7079 28
5664 7076 7080 28
5665 7081 7082 28
5666 7081 7083 28
5667 7081 7084 28
5668 7081 7085 28
5669 7086 7087 28
5670 7086 7088 28
5671 7086 7089 28
5672 7086 7090 28
5673 7091 7092 28
5674 7091 7093 28
5675 7091 7094 28
5676 7091 7095 28
5677 7096 7097 28
5678 7096 7098 28
5679 7096 7099 28
5680 7096 7100 28
5681 7101 7102 28
5682 7101 7103 28
5683 7101 7104 28
5684 7101 7105 28
5685 7106 7107 28
5686 7106 7108 28
5687 7106 7109 28
5688 7106 7110 28
5689 7111 7112 28
5690 7111 7113 28
5691 7111 7114 28
5692 7111 7115 28
5693 7116 7117 28
5694 7116 7118 28
5695 7116 7119 28
5696 7116 7120 28
5697 7121 7122 28
5698 7121 7123 28
5699 7121 7124 28
5700 7121 7125 28
5701 7126 7127 28
5702 7126 7128 28
5703 7126 7129 28
5704 7126 7130 28
5705 7131 7132 28
5706 7131 7133 28
5707 7131 7134 28
5708 7131 7135 28
5709 7136 7137 28
5710 7136 7138 28
5711 7136 7139 28
5712 7136 7140 28
5713 7141 7142 28
5714 7141 7143 28
5715 7141 7144 28
5716 7141 7145 28
5717 7146 7147 28
5718 7146 7148 28
5719 7146 7149 28
5720 7146 7150 28
5721 7151 7152 28
5722 7151 7153 28
5723 7151 7154 28
5724 7151 7155 28
5725 7156 7157 28
5726 7156 7158 28
5727 7156 7159 28
5728 7156 7160 28
5729 7161 7162 28
5730 7161 7163 28
5731 7161 7164 28
5732 7161 7165 28
5733 7166 7167 28
5734 7166 7168 28
5735 7166 7169 28
5736 7166 7170 28
5737 7171 7172 28
5738 7171 7173 28
5739 7171 7174 28
5740 7171 7175 28
5741 7176 7177 28
5742 7176 7178 28
5743 7176 7179 28
5744 7176 7180 28
5745 7181 7182 28
5746 7181 7183 28
5747 7181 7184 28
5748 7181 7185 28
5749 7186 7187 28
5750 7186 7188 28
5751 7186 7189 28
5752 7186 7190 28
5753 7191 7192 28
5754 7191 7193 28
5755 7191 7194 28
5756 7191 7195 28
5757 7196 7197 28
5758 7196 7198 28
5759 7196 7199 28
5760 7196 7200 28
5761 7201 7202 28
5762 7201 7203 28
5763 7201 7204 28
5764 7201 7205 28
5765 7206 7207 28
5766 7206 7208 28
5767 7206 7209 28
5768 7206 7210 28
5769 7211 7212 28
5770 7211 7213 28
5771 7211 7214 28
5772 7211 7215 28
5773 7216 7217 28
5774 7216 7218 28
5775 7216 7219 28
5776 7216 7220 28
5777 7221 7222 28
5778 7221 7223 28
5779 7221 7224 28
5780 7221 7225 28
5781 7226 7227 28
5782 7226 7228 28
5783 7226 7229 28
5784 7226 7230 28
5785 7231 7232 28
5786 7231 7233 28
5787 7231 7234 28
5788 7231 7235 28
5789 7236 7237 28
5790 7236 7238 28
5791 7236 7239 28
5792 7236 7240 28
5793 7241 7242 28
5794 7241 7243 28
5795 7241 7244 28
5796 7241 7245 28
5797 7246 7247 28
5798 7246 7248 28
5799 7246 7249 28
5800 7246 7250 28
5801 7251 7252 28
5802 7251 7253 28
5803 7251 7254 28
5804 7251 7255 28
5805 7256 7257 28
5806 7256 7258 28
5807 7256 7259 28
5808 7256 7260 28
5809 7261 7262 28
5810 7261 7263 28
5811 7261 7264 28
5812 7261 7265 28
5813 7266 7267 28
5814 7266 7268 28
5815 7266 7269 28
5816 7266 7270 28
5817 7271 7272 28
5818 7271 7273 28
5819 7271 7274 28
5820 7271 7275 28
5821 7276 7277 28
5822 7276 7278 28
5823 7276 7279 28
5824 7276 7280 28
5825 7281 7282 28
5826 7281 7283 28
5827 7281 7284 28
5828 7281 7285 28
5829 7286 7287 28
5830 7286 7288 28
5831 7286 7289 28
5832 7286 7290 28
5833 7291 7292 28
5834 7291 7293 28
5835 7291 7294 28
5836 7291 7295 28
5837 7296 7297 28
5838 7296 7298 28
5839 7296 7299 28
5840 7296 7300 28
5841 7301 7302 28
5842 7301 7303 28
5843 7301 7304 28
5844 7301 7305 28
5845 7306 7307 28
5846 7306 7308 28
5847 7306 7309 28
5848 7306 7310 28
5849 7311 7312 28
5850 7311 7313 28
5851 7311 7314 28
5852 7311 7315 28
5853 7316 7317 28
5854 7316 7318 28
5855 7316 7319 28
5856 7316 7320 28
5857 7321 7322 28
5858 7321 7323 28
5859 7321 7324 28
5860 7321 7325 28
5861 7326 7327 28
5862 7326 7328 28
5863 7326 7329 28
5864 7326 7330 28
5865 7331 7332 28
5866 7331 7333 28
5867 7331 7334 28
5868 7331 7335 28
5869 7336 7337 28
5870 7336 7338 28
5871 7336 7339 28
5872 7336 7340 28
5873 7341 7342 28
5874 7341 7343 28
5875 7341 7344 28
5876 7341 7345 28
5877 7346 7347 28
5878 7346 7348 28
5879 7346 7349 28
5880 7346 7350 28
5881 7351 7352 28
5882 7351 7353 28
5883 7351 7354 28
5884 7351 7355 28
5885 7356 7357 28
5886 7356 7358 28
5887 7356 7359 28
5888 7356 7360 28
5889 7361 7362 28
5890 7361 7363 28
5891 7361 7364 28
5892 7361 7365 28
5893 7366 7367 28
5894 7366 7368 28
5895 7366 7369 28
5896 7366 7370 28
5897 7371 7372 28
5898 7371 7373 28
5899 7371 7374 28
5900 7371 7375 28
5901 7376 7377 28
5902 7376 7378 28
5903 7376 7379 28
5904 7376 7380 28
5905 7381 7382 28
5906 7381 7383 28
5907 7381 7384 28
5908 7381 7385 28
5909 7386 7387 28
5910 7386 7388 28
5911 7386 7389 28
5912 7386 7390 28
5913 7391 7392 28
5914 7391 7393 28
5915 7391 7394 28
5916 7391 7395 28
5917 7396 7397 28
5918 7396 7398 28
5919 7396 7399 28
5920 7396 7400 28
5921 7401 7402 28
5922 7401 7403 28
5923 7401 7404 28
5924 7401 7405 28
5925 7406 7407 28
5926 7406 7408 28
5927 7406 7409 28
5928 7406 7410 28
5929 7411 7412 28
5930 7411 7413 28
5931 7411 7414 28
5932 7411 7415 28
5933 7416 7417 28
5934 7416 7418 28
5935 7416 7419 28
5936 7416 7420 28
5937 7421 7422 28
5938 7421 7423 28
5939 7421 7424 28
5940 7421 7425 28
5941 7426 7427 28
5942 7426 7428 28
5943 7426 7429 28
5944 7426 7430 28
5945 7431 7432 28
5946 7431 7433 28
5947 7431 7434 28
5948 7431 7435 28
5949 7436 7437 28
5950 7436 7438 28
5951 7436 7439 28
5952 7436 7440 28
5953 7441 7442 28
5954 7441 7443 28
5955 7441 7444 28
5956 7441 7445 28
5957 7446 7447 28
5958 7446 7448 28
5959 7446 7449 28
5960 7446 7450 28
5961 7451 7452 28
5962 7451 7453 28
5963 7451 7454 28
5964 7451 7455 28
5965 7456 7457 28
5966 7456 7458 28
5967 7456 7459 28
5968 7456 7460 28
5969 7461 7462 28
5970 7461 7463 28
5971 7461 7464 28
5972 7461 7465 28
5973 7466 7467 28
5974 7466 7468 28
5975 7466 7469 28
5976 7466 7470 28
5977 7471 7472 28
5978 7471 7473 28
5979 7471 7474 28
5980 7471 7475 28
5981 7476 7477 28
5982 7476 7478 28
5983 7476 7479 28
5984 7476 7480 28
5985 7481 7482 28
5986 7481 7483 28
5987 7481 7484 28
5988 7481 7485 28
5989 7486 7487 28
5990 7486 7488 28
5991 7486 7489 28
5992 7486 7490 28
5993 7491 7492 28
5994 7491 7493 28
5995 7491 7494 28
5996 7491 7495 28
5997 7496 7497 28
5998 7496 7498 28
5999 7496 7499 28
6000 7496 7500 28
6001 7501 7502 28
6002 7501 7503 28
6003 7501 7504 28
6004 7501 7505 28
6005 7506 7507 28
6006 7506 7508 28
6007 7506 7509 28
6008 7506 7510 28
6009 7511 7512 28
6010 7511 7513 28
6011 7511 7514 28
6012 7511 7515 28
6013 7516 7517 28
6014 7516 7518 28
6015 7516 7519 28
6016 7516 7520 28
6017 7521 7522 28
6018 7521 7523 28
6019 7521 7524 28
6020 7521 7525 28
6021 7526 7527 28
6022 7526 7528 28
6023 7526 7529 28
6024 7526 7530 28
6025 7531 7532 28
6026 7531 7533 28
6027 7531 7534 28
6028 7531 7535 28
6029 7536 7537 28
6030 7536 7538 28
6031 7536 7539 28
6032 7536 7540 28
6033 7541 7542 28
6034 7541 7543 28
6035 7541 7544 28
6036 7541 7545 28
6037 7546 7547 28
6038 7546 7548 28
6039 7546 7549 28
6040 7546 7550 28
6041 7551 7552 28
6042 7551 7553 28
6043 7551 7554 28
6044 7551 7555 28
6045 7556 7557 28
6046 7556 7558 28
6047 7556 7559 28
6048 7556 7560 28
6049 7561 7562 28
6050 7561 7563 28
6051 7561 7564 28
6052 7561 7565 28
6053 7566 7567 28
6054 7566 7568 28
6055 7566 7569 28
6056 7566 7570 28
6057 7571 7572 28
6058 7571 7573 28
6059 7571 7574 28
6060 7571 7575 28
6061 7576 7577 28
6062 7576 7578 28
6063 7576 7579 28
6064 7576 7580 28
6065 7581 7582 28
6066 7581 7583 28
6067 7581 7584 28
6068 7581 7585 28
6069 7586 7587 28
6070 7586 7588 28
6071 7586 7589 28
6072 7586 7590 28
6073 7591 7592 28
6074 7591 7593 28
6075 7591 7594 28
6076 7591 7595 28
6077 7596 7597 28
6078 7596 7598 28
6079 7596 7599 28
6080 7596 7600 28
6081 7601 7602 28
6082 7601 7603 28
6083 7601 7604 28
6084 7601 7605 28
6085 7606 7607 28
6086 7606 7608 28
6087 7606 7609 28
6088 7606 7610 28
6089 7611 7612 28
6090 7611 7613 28
6091 7611 7614 28
6092 7611 7615 28
6093 7616 7617 28
6094 7616 7618 28
6095 7616 7619 28
6096 7616 7620 28
6097 7621 7622 28
6098 7621 7623 28
6099 7621 7624 28
6100 7621 7625 28
6101 7626 7627 28
6102 7626 7628 28
6103 7626 7629 28
6104 7626 7630 28
6105 7631 7632 28
6106 7631 7633 28
6107 7631 7634 28
6108 7631 7635 28
6109 7636 7637 28
6110 7636 7638 28
6111 7636 7639 28
6112 7636 7640 28
6113 7641 7642 28
6114 7641 7643 28
6115 7641 7644 28
6116 7641 7645 28
6117 7646 7647 28
6118 7646 7648 28
6119 7646 7649 28
6120 7646 7650 28
6121 7651 7652 28
6122 7651 7653 28
6123 7651 7654 28
6124 7651 7655 28
6125 7656 7657 28
6126 7656 7658 28
6127 7656 7659 28
6128 7656 7660 28
6129 7661 7662 28
6130 7661 7663 28
6131 7661 7664 28
6132 7661 7665 28
6133 7666 7667 28
6134 7666 7668 28
6135 7666 7669 28
6136 7666 7670 28
6137 7671 7672 28
6138 7671 7673 28
6139 7671 7674 28
6140 7671 7675 28
6141 7676 7677 28
6142 7676 7678 28
6143 7676 7679 28
6144 7676 7680 28
6145 7681 7682 28
6146 7681 7683 28
6147 7681 7684 28
6148 7681 7685 28
6149 7686 7687 28
6150 7686 7688 28
6151 7686 7689 28
6152 7686 7690 28
6153 7691 7692 28
6154 7691 7693 28
6155 7691 7694 28
6156 7691 7695 28
6157 7696 7697 28
6158 7696 7698 28
6159 7696 7699 28
6160 7696 7700 28
6161 7701 7702 28
6162 7701 7703 28
6163 7701 7704 28
6164 7701 7705 28
6165 7706 7707 28
6166 7706 7708 28
6167 7706 7709 28
6168 7706 7710 28
6169 7711 7712 28
6170 7711 7713 28
6171 7711 7714 28
6172 7711 7715 28
6173 7716 7717 28
6174 7716 7718 28
6175 7716 7719 28
6176 7716 7720 28
6177 7721 7722 28
6178 7721 7723 28
6179 7721 7724 28
6180 7721 7725 28
6181 7726 7727 28
6182 7726 7728 28
6183 7726 7729 28
6184 7726 7730 28
6185 7731 7732 28
6186 7731 7733 28
6187 7731 7734 28
6188 7731 7735 28
6189 7736 7737 28
6190 7736 7738 28
6191 7736 7739 28
6192 7736 7740 28
6193 7741 7742 28
6194 7741 7743 28
6195 7741 7744 28
6196 7741 7745 28
6197 7746 7747 28
6198 7746 7748 28
6199 7746 7749 28
6200 7746 7750 28
6201 7751 7752 28
6202 7751 7753 28
6203 7751 7754 28
6204 7751 7755 28
6205 7756 7757 28
6206 7756 7758 28
6207 7756 7759 28
6208 7756 7760 28
6209 7761 7762 28
6210 7761 7763 28
6211 7761 7764 28
6212 7761 7765 28
6213 7766 7767 28
6214 7766 7768 28
6215 7766 7769 28
6216 7766 7770 28
6217 7771 7772 28
6218 7771 7773 28
6219 7771 7774 28
6220 7771 7775 28
6221 7776 7777 28
6222 7776 7778 28
6223 7776 7779 28
6224 7776 7780 28
6225 7781 7782 28
6226 7781 7783 28
6227 7781 7784 28
6228 7781 7785 28
6229 7786 7787 28
6230 7786 7788 28
6231 7786 7789 28
6232 7786 7790 28
6233 7791 7792 28
6234 7791 7793 28
6235 7791 7794 28
6236 7791 7795 28
6237 7796 7797 28
6238 7796 7798 28
6239 7796 7799 28
6240 7796 7800 28
6241 7801 7802 28
6242 7801 7803 28
6243 7801 7804 28
6244 7801 7805 28
6245 7806 7807 28
6246 7806 7808 28
6247 7806 7809 28
6248 7806 7810 28
6249 7811 7812 28
6250 7811 7813 28
6251 7811 7814 28
6252 7811 7815 28
6253 7816 7817 28
6254 7816 7818 28
6255 7816 7819 28
6256 7816 7820 28
6257 7821 7822 28
6258 7821 7823 28
6259 7821 7824 28
6260 7821 7825 28
6261 7826 7827 28
6262 7826 7828 28
6263 7826 7829 28
6264 7826 7830 28
6265 7831 7832 28
6266 7831 7833 28
6267 7831 7834 28
6268 7831 7835 28
6269 7836 7837 28
6270 7836 7838 28
6271 7836 7839 28
6272 7836 7840 28
6273 7841 7842 28
6274 7841 7843 28
6275 7841 7844 28
6276 7841 7845 28
6277 7846 7847 28
6278 7846 7848 28
6279 7846 7849 28
6280 7846 7850 28
6281 7851 7852 28
6282 7851 7853 28
6283 7851 7854 28
6284 7851 7855 28
6285 7856 7857 28
6286 7856 7858 28
6287 7856 7859 28
6288 7856 7860 28
6289 7861 7862 28
6290 7861 7863 28
6291 7861 7864 28
6292 7861 7865 28
6293 7866 7867 28
6294 7866 7868 28
6295 7866 7869 28
6296 7866 7870 28
6297 7871 7872 28
6298 7871 7873 28
6299 7871 7874 28
6300 7871 7875 28
6301 7876 7877 28
6302 7876 7878 28
6303 7876 7879 28
6304 7876 7880 28
6305 7881 7882 28
6306 7881 7883 28
6307 7881 7884 28
6308 7881 7885 28
6309 7886 7887 28
6310 7886 7888 28
6311 7886 7889 28
6312 7886 7890 28
6313 7891 7892 28
6314 7891 7893 28
6315 7891 7894 28
6316 7891 7895 28
6317 7896 7897 28
6318 7896 7898 28
6319 7896 7899 28
6320 7896 7900 28
6321 7901 7902 28
6322 7901 7903 28
6323 7901 7904 28
6324 7901 7905 28
6325 7906 7907 28
6326 7906 7908 28
6327 7906 7909 28
6328 7906 7910 28
6329 7911 7912 28
6330 7911 7913 28
6331 7911 7914 28
6332 7911 7915 28
6333 7916 7917 28
6334 7916 7918 28
6335 7916 7919 28
6336 7916 7920 28
6337 7921 7922 28
6338 7921 7923 28
6339 7921 7924 28
6340 7921 7925 28
6341 7926 7927 28
6342 7926 7928 28
6343 7926 7929 28
6344 7926 7930 28
6345 7931 7932 28
6346 7931 7933 28
6347 7931 7934 28
6348 7931 7935 28
6349 7936 7937 28
6350 7936 7938 28
6351 7936 7939 28
6352 7936 7940 28
6353 7941 7942 28
6354 7941 7943 28
6355 7941 7944 28
6356 7941 7945 28
6357 7946 7947 28
6358 7946 7948 28
6359 7946 7949 28
6360 7946 7950 28
6361 7951 7952 28
6362 7951 7953 28
6363 7951 7954 28
6364 7951 7955 28
6365 7956 7957 28
6366 7956 7958 28
6367 7956 7959 28
6368 7956 7960 28
6369 7961 7962 28
6370 7961 7963 28
6371 7961 7964 28
6372 7961 7965 28
6373 7966 7967 28
6374 7966 7968 28
6375 7966 7969 28
6376 7966 7970 28
6377 7971 7972 28
6378 7971 7973 28
6379 7971 7974 28
6380 7971 7975 28
6381 7976 7977 28
6382 7976 7978 28
6383 7976 7979 28
6384 7976 7980 28
6385 7981 7982 28
6386 7981 7983 28
6387 7981 7984 28
6388 7981 7985 28
6389 7986 7987 28
6390 7986 7988 28
6391 7986 7989 28
6392 7986 7990 28
6393 7991 7992 28
6394 7991 7993 28
6395 7991 7994 28
6396 7991 7995 28
6397 7996 7997 28
6398 7996 7998 28
6399 7996 7999 28
6400 7996 8000 28
6401 8001 8002 28
6402 8001 8003 28
6403 8001 8004 28
6404 8001 8005 28
6405 8006 8007 28
6406 8006 8008 28
6407 8006 8009 28
6408 8006 8010 28
6409 8011 8012 28
6410 8011 8013 28
6411 8011 8014 28
6412 8011 8015 28
6413 8016 8017 28
6414 8016 8018 28
6415 8016 8019 28
6416 8016 8020 28
6417 8021 8022 28
6418 8021 8023 28
6419 8021 8024 28
6420 8021 8025 28
6421 8026 8027 28
6422 8026 8028 28
6423 8026 8029 28
6424 8026 8030 28
6425 8031 8032 28
6426 8031 8033 28
6427 8031 8034 28
6428 8031 8035 28
6429 8036 8037 28
6430 8036 8038 28
6431 8036 8039 28
6432 8036 8040 28
6433 8041 8042 28
6434 8041 8043 28
6435 8041 8044 28
6436 8041 8045 28
6437 8046 8047 28
6438 8046 8048 28
6439 8046 8049 28
6440 8046 8050 28
6441 8051 8052 28
6442 8051 8053 28
6443 8051 8054 28
6444 8051 8055 28
6445 8056 8057 28
6446 8056 8058 28
6447 8056 8059 28
6448 8056 8060 28
6449 8061 8062 28
6450 8061 8063 28
6451 8061 8064 28
6452 8061 8065 28
6453 8066 8067 28
6454 8066 8068 28
6455 8066 8069 28
6456 8066 8070 28
6457 8071 8072 28
6458 8071 8073 28
6459 8071 8074 28
6460 8071 8075 28
6461 8076 8077 28
6462 8076 8078 28
6463 8076 8079 28
6464 8076 8080 28
6465 8081 8082 28
6466 8081 8083 28
6467 8081 8084 28
6468 8081 8085 28
6469 8086 8087 28
6470 8086 8088 28
6471 8086 8089 28
6472 8086 8090 28
6473 8091 8092 28
6474 8091 8093 28
6475 8091 8094 28
6476 8091 8095 28
6477 8096 8097 28
6478 8096 8098 28
6479 8096 8099 28
6480 8096 8100 28
6481 8101 8102 28
6482 8101 8103 28
6483 8101 8104 28
6484 8101 8105 28
6485 8106 8107 28
6486 8106 8108 28
6487 8106 8109 28
6488 8106 8110 28
6489 8111 8112 28
6490 8111 8113 28
6491 8111 8114 28
6492 8111 8115 28
6493 8116 8117 28
6494 8116 8118 28
6495 8116 8119 28
6496 8116 8120 28
6497 8121 8122 28
6498 8121 8123 28
6499 8121 8124 28
6500 8121 8125 28
6501 8126 8127 28
6502 8126 8128 28
6503 8126 8129 28
6504 8126 8130 28
6505 8131 8132 28
6506 8131 8133 28
6507 8131 8134 28
6508 8131 8135 28
6509 8136 8137 28
6510 8136 8138 28
6511 8136 8139 28
6512 8136 8140 28
6513 8141 8142 28
6514 8141 8143 28
6515 8141 8144 28
6516 8141 8145 28
6517 8146 8147 28
6518 8146 8148 28
6519 8146 8149 28
6520 8146 8150 28
6521 8151 8152 28
6522 8151 8153 28
6523 8151 8154 28
6524 8151 8155 28
6525 8156 8157 28
6526 8156 8158 28
6527 8156 8159 28
6528 8156 8160 28
6529 8161 8162 28
6530 8161 8163 28
6531 8161 8164 28
6532 8161 8165 28
6533 8166 8167 28
6534 8166 8168 28
6535 8166 8169 28
6536 8166 8170 28
6537 8171 8172 28
6538 8171 8173 28
6539 8171 8174 28
6540 8171 8175 28
6541 8176 8177 28
6542 8176 8178 28
6543 8176 8179 28
6544 8176 8180 28
6545 8181 8182 28
6546 8181 8183 28
6547 8181 8184 28
6548 8181 8185 28
6549 8186 8187 28
6550 8186 8188 28
6551 8186 8189 28
6552 8186 8190 28
6553 8191 8192 28
6554 8191 8193 28
6555 8191 8194 28
6556 8191 8195 28
6557 8196 8197 28
6558 8196 8198 28
6559 8196 8199 28
6560 8196 8200 28
6561 8201 8202 28
6562 8201 8203 28
6563 8201 8204 28
6564 8201 8205 28
6565 8206 8207 28
6566 8206 8208 28
6567 8206 8209 28
6568 8206 8210 28
6569 8211 8212 28
6570 8211 8213 28
6571 8211 8214 28
6572 8211 8215 28
6573 8216 8217 28
6574 8216 8218 28
6575 8216 8219 28
6576 8216 8220 28
6577 8221 8222 28
6578 8221 8223 28
6579 8221 8224 28
6580 8221 8225 28
6581 8226 8227 28
6582 8226 8228 28
6583 8226 8229 28
6584 8226 8230 28
6585 8231 8232 28
6586 8231 8233 28
6587 8231 8234 28
6588 8231 8235 28
6589 8236 8237 28
6590 8236 8238 28
6591 8236 8239 28
6592 8236 8240 28
6593 8241 8242 28
6594 8241 8243 28
6595 8241 8244 28
6596 8241 8245 28
6597 8246 8247 28
6598 8246 8248 28
6599 8246 8249 28
6600 8246 8250 28
6601 8251 8252 28
6602 8251 8253 28
6603 8251 8254 28
6604 8251 8255 28
6605 8256 8257 28
6606 8256 8258 28
6607 8256 8259 28
6608 8256 8260 28
6609 8261 8262 28
6610 8261 8263 28
6611 8261 8264 28
6612 8261 8265 28
6613 8266 8267 28
6614 8266 8268 28
6615 8266 8269 28
6616 8266 8270 28
6617 8271 8272 28
6618 8271 8273 28
6619 8271 8274 28
6620 8271 8275 28
6621 8276 8277 28
6622 8276 8278 28
6623 8276 8279 28
6624 8276 8280 28
6625 8281 8282 28
6626 8281 8283 28
6627 8281 8284 28
6628 8281 8285 28
6629 8286 8287 28
6630 8286 8288 28
6631 8286 8289 28
6632 8286 8290 28
6633 8291 8292 28
6634 8291 8293 28
6635 8291 8294 28
6636 8291 8295 28
6637 8296 8297 28
6638 8296 8298 28
6639 8296 8299 28
6640 8296 8300 28
6641 8301 8302 28
6642 8301 8303 28
6643 8301 8304 28
6644 8301 8305 28
6645 8306 8307 28
6646 8306 8308 28
6647 8306 8309 28
6648 8306 8310 28
6649 8311 8312 28
6650 8311 8313 28
6651 8311 8314 28
6652 8311 8315 28
6653 8316 8317 28
6654 8316 8318 28
6655 8316 8319 28
6656 8316 8320 28
6657 8321 8322 28
6658 8321 8323 28
6659 8321 8324 28
6660 8321 8325 28
6661 8326 8327 28
6662 8326 8328 28
6663 8326 8329 28
6664 8326 8330 28
6665 8331 8332 28
6666 8331 8333 28
6667 8331 8334 28
6668 8331 8335 28
6669 8336 8337 28
6670 8336 8338 28
6671 8336 8339 28
6672 8336 8340 28
6673 8341 8342 28
6674 8341 8343 28
6675 8341 8344 28
6676 8341 8345 28
6677 8346 8347 28
6678 8346 8348 28
6679 8346 8349 28
6680 8346 8350 28
6681 8351 8352 28
6682 8351 8353 28
6683 8351 8354 28
6684 8351 8355 28
6685 8356 8357 28
6686 8356 8358 28
6687 8356 8359 28
6688 8356 8360 28
6689 8361 8362 28
6690 8361 8363 28
6691 8361 8364 28
6692 8361 8365 28
6693 8366 8367 28
6694 8366 8368 28
6695 8366 8369 28
6696 8366 8370 28
6697 8371 8372 28
6698 8371 8373 28
6699 8371 8374 28
6700 8371 8375 28
6701 8376 8377 28
6702 8376 8378 28
6703 8376 8379 28
6704 8376 8380 28
6705 8381 8382 28
6706 8381 8383 28
6707 8381 8384 28
6708 8381 8385 28
6709 8386 8387 28
6710 8386 8388 28
6711 8386 8389 28
6712 8386 8390 28
6713 8391 8392 28
6714 8391 8393 28
6715 8391 8394 28
6716 8391 8395 28
6717 8396 8397 28
6718 8396 8398 28
6719 8396 8399 28
6720 8396 8400 28
6721 8401 8402 28
6722 8401 8403 28
6723 8401 8404 28
6724 8401 8405 28
6725 8406 8407 28
6726 8406 8408 28
6727 8406 8409 28
6728 8406 8410 28
6729 8411 8412 28
6730 8411 8413 28
6731 8411 8414 28
6732 8411 8415 28
6733 8416 8417 28
6734 8416 8418 28
6735 8416 8419 28
6736 8416 8420 28
6737 8421 8422 28
6738 8421 8423 28
6739 8421 8424 28
6740 8421 8425 28
6741 8426 8427 28
6742 8426 8428 28
6743 8426 8429 28
6744 8426 8430 28
6745 8431 8432 28
6746 8431 8433 28
6747 8431 8434 28
6748 8431 8435 28
6749 8436 8437 28
6750 8436 8438 28
6751 8436 8439 28
6752 8436 8440 28
6753 8441 8442 28
6754 8441 8443 28
6755 8441 8444 28
6756 8441 8445 28
6757 8446 8447 28
6758 8446 8448 28
6759 8446 8449 28
6760 8446 8450 28
6761 8451 8452 28
6762 8451 8453 28
6763 8451 8454 28
6764 8451 8455 28
6765 8456 8457 28
6766 8456 8458 28
6767 8456 8459 28
6768 8456 8460 28
6769 8461 8462 28
6770 8461 8463 28
6771 8461 8464 28
6772 8461 8465 28
6773 8466 8467 28
6774 8466 8468 28
6775 8466 8469 28
6776 8466 8470 28
6777 8471 8472 28
6778 8471 8473 28
6779 8471 8474 28
6780 8471 8475 28
6781 8476 8477 28
6782 8476 8478 28
6783 8476 8479 28
6784 8476 8480 28
6785 8481 8482 28
6786 8481 8483 28
6787 8481 8484 28
6788 8481 8485 28
6789 8486 8487 28
6790 8486 8488 28
6791 8486 8489 28
6792 8486 8490 28
6793 8491 8492 28
6794 8491 8493 28
6795 8491 8494 28
6796 8491 8495 28
6797 8496 8497 28
6798 8496 8498 28
6799 8496 8499 28
6800 8496 8500 28
6801 8501 8502 28
6802 8501 8503 28
6803 8501 8504 28
6804 8501 8505 28
6805 8506 8507 28
6806 8506 8508 28
6807 8506 8509 28
6808 8506 8510 28
6809 8511 8512 28
6810 8511 8513 28
6811 8511 8514 28
6812 8511 8515 28
6813 8516 8517 28
6814 8516 8518 28
6815 8516 8519 28
6816 8516 8520 28
6817 8521 8522 28
6818 8521 8523 28
6819 8521 8524 28
6820 8521 8525 28
6821 8526 8527 28
6822 8526 8528 28
6823 8526 8529 28
6824 8526 8530 28
6825 8531 8532 28
6826 8531 8533 28
6827 8531 8534 28
6828 8531 8535 28
6829 8536 8537 28
6830 8536 8538 28
6831 8536 8539 28
6832 8536 8540 28
6833 8541 8542 28
6834 8541 8543 28
6835 8541 8544 28
6836 8541 8545 28
6837 8546 8547 28
6838 8546 8548 28
6839 8546 8549 28
6840 8546 8550 28
6841 8551 8552 28
6842 8551 8553 28
6843 8551 8554 28
6844 8551 8555 28
6845 8556 8557 28
6846 8556 8558 28
6847 8556 8559 28
6848 8556 8560 28
6849 8561 8562 28
6850 8561 8563 28
6851 8561 8564 28
6852 8561 8565 28
6853 8566 8567 28
6854 8566 8568 28
6855 8566 8569 28
6856 8566 8570 28
6857 8571 8572 28
6858 8571 8573 28
6859 8571 8574 28
6860 8571 8575 28
6861 8576 8577 28
6862 8576 8578 28
6863 8576 8579 28
6864 8576 8580 28
6865 8581 8582 28
6866 8581 8583 28
6867 8581 8584 28
6868 8581 8585 28
6869 8586 8587 28
6870 8586 8588 28
6871 8586 8589 28
6872 8586 8590 28
6873 8591 8592 28
6874 8591 8593 28
6875 8591 8594 28
6876 8591 8595 28
6877 8596 8597 28
6878 8596 8598 28
6879 8596 8599 28
6880 8596 8600 28
6881 8601 8602 28
6882 8601 8603 28
6883 8601 8604 28
6884 8601 8605 28
6885 8606 8607 28
6886 8606 8608 28
6887 8606 8609 28
6888 8606 8610 28
6889 8611 8612 28
6890 8611 8613 28
6891 8611 8614 28
6892 8611 8615 28
6893 8616 8617 28
6894 8616 8618 28
6895 8616 8619 28
6896 8616 8620 28
6897 8621 8622 28
6898 8621 8623 28
6899 8621 8624 28
6900 8621 8625 28
6901 8626 8627 28
6902 8626 8628 28
6903 8626 8629 28
6904 8626 8630 28
6905 8631 8632 28
6906 8631 8633 28
6907 8631 8634 28
6908 8631 8635 28
6909 8636 8637 28
6910 8636 8638 28
6911 8636 8639 28
6912 8636 8640 28
6913 8641 8642 28
6914 8641 8643 28
6915 8641 8644 28
6916 8641 8645 28
6917 8646 8647 28
6918 8646 8648 28
6919 8646 8649 28
6920 8646 8650 28
6921 8651 8652 28
6922 8651 8653 28
6923 8651 8654 28
6924 8651 8655 28
6925 8656 8657 28
6926 8656 8658 28
6927 8656 8659 28
6928 8656 8660 28
6929 8661 8662 28
6930 8661 8663 28
6931 8661 8664 28
6932 8661 8665 28
6933 8666 8667 28
6934 8666 8668 28
6935 8666 8669 28
6936 8666 8670 28
6937 8671 8672 28
6938 8671 8673 28
6939 8671 8674 28
6940 8671 8675 28
6941 8676 8677 28
6942 8676 8678 28
6943 8676 8679 28
6944 8676 8680 28
6945 8681 8682 28
6946 8681 8683 28
6947 8681 8684 28
6948 8681 8685 28
6949 8686 8687 28
6950 8686 8688 28
6951 8686 8689 28
6952 8686 8690 28
6953 8691 8692 28
6954 8691 8693 28
6955 8691 8694 28
6956 8691 8695 28
6957 8696 8697 28
6958 8696 8698 28
6959 8696 8699 28
6960 8696 8700 28
6961 8701 8702 28
6962 8701 8703 28
6963 8701 8704 28
6964 8701 8705 28
6965 8706 8707 28
6966 8706 8708 28
6967 8706 8709 28
6968 8706 8710 28
6969 8711 8712 28
6970 8711 8713 28
6971 8711 8714 28
6972 8711 8715 28
6973 8716 8717 28
6974 8716 8718 28
6975 8716 8719 28
6976 8716 8720 28
6977 8721 8722 28
6978 8721 8723 28
6979 8721 8724 28
6980 8721 8725 28
6981 8726 8727 28
6982 8726 8728 28
6983 8726 8729 28
6984 8726 8730 28
6985 8731 8732 28
6986 8731 8733 28
6987 8731 8734 28
6988 8731 8735 28
6989 8736 8737 28
6990 8736 8738 28
6991 8736 8739 28
6992 8736 8740 28
6993 8741 8742 28
6994 8741 8743 28
6995 8741 8744 28
6996 8741 8745 28
6997 8746 8747 28
6998 8746 8748 28
6999 8746 8749 28
7000 8746 8750 28
7001 8751 8752 28
7002 8751 8753 28
7003 8751 8754 28
7004 8751 8755 28
7005 8756 8757 28
7006 8756 8758 28
7007 8756 8759 28
7008 8756 8760 28
7009 8761 8762 28
7010 8761 8763 28
7011 8761 8764 28
7012 8761 8765 28
7013 8766 8767 28
7014 8766 8768 28
7015 8766 8769 28
7016 8766 8770 28
7017 8771 8772 28
7018 8771 8773 28
7019 8771 8774 28
7020 8771 8775 28
7021 8776 8777 28
7022 8776 8778 28
7023 8776 8779 28
7024 8776 8780 28
7025 8781 8782 28
7026 8781 8783 28
7027 8781 8784 28
7028 8781 8785 28
7029 8786 8787 28
7030 8786 8788 28
7031 8786 8789 28
7032 8786 8790 28
7033 8791 8792 28
7034 8791 8793 28
7035 8791 8794 28
7036 8791 8795 28
7037 8796 8797 28
7038 8796 8798 28
7039 8796 8799 28
7040 8796 8800 28
7041 8801 8802 28
7042 8801 8803 28
7043 8801 8804 28
7044 8801 8805 28
7045 8806 8807 28
7046 8806 8808 28
7047 8806 8809 28
7048 8806 8810 28
7049 8811 8812 28
7050 8811 8813 28
7051 8811 8814 28
7052 8811 8815 28
7053 8816 8817 28
7054 8816 8818 28
7055 8816 8819 28
7056 8816 8820 28
7057 8821 8822 28
7058 8821 8823 28
7059 8821 8824 28
7060 8821 8825 28
7061 8826 8827 28
7062 8826 8828 28
7063 8826 8829 28
7064 8826 8830 28
7065 8831 8832 28
7066 8831 8833 28
7067 8831 8834 28
7068 8831 8835 28
7069 8836 8837 28
7070 8836 8838 28
7071 8836 8839 28
7072 8836 8840 28
7073 8841 8842 28
7074 8841 8843 28
7075 8841 8844 28
7076 8841 8845 28
7077 8846 8847 28
7078 8846 8848 28
7079 8846 8849 28
7080 8846 8850 28
7081 8851 8852 28
7082 8851 8853 28
7083 8851 8854 28
7084 8851 8855 28
7085 8856 8857 28
7086 8856 8858 28
7087 8856 8859 28
7088 8856 8860 28
7089 8861 8862 28
7090 8861 8863 28
7091 8861 8864 28
7092 8861 8865 28
7093 8866 8867 28
7094 8866 8868 28
7095 8866 8869 28
7096 8866 8870 28
7097 8871 8872 28
7098 8871 8873 28
7099 8871 8874 28
7100 8871 8875 28
7101 8876 8877 28
7102 8876 8878 28
7103 8876 8879 28
7104 8876 8880 28
7105 8881 8882 28
7106 8881 8883 28
7107 8881 8884 28
7108 8881 8885 28
7109 8886 8887 28
7110 8886 8888 28
7111 8886 8889 28
7112 8886 8890 28
7113 8891 8892 28
7114 8891 8893 28
7115 8891 8894 28
7116 8891 8895 28
7117 8896 8897 28
7118 8896 8898 28
7119 8896 8899 28
7120 8896 8900 28
7121 8901 8902 28
7122 8901 8903 28
7123 8901 8904 28
7124 8901 8905 28
7125 8906 8907 28
7126 8906 8908 28
7127 8906 8909 28
7128 8906 8910 28
7129 8911 8912 28
7130 8911 8913 28
7131 8911 8914 28
7132 8911 8915 28
7133 8916 8917 28
7134 8916 8918 28
7135 8916 8919 28
7136 8916 8920 28
7137 8921 8922 28
7138 8921 8923 28
7139 8921 8924 28
7140 8921 8925 28
7141 8926 8927 28
7142 8926 8928 28
7143 8926 8929 28
7144 8926 8930 28
7145 8931 8932 28
7146 8931 8933 28
7147 8931 8934 28
7148 8931 8935 28
7149 8936 8937 28
7150 8936 8938 28
7151 8936 8939 28
7152 8936 8940 28
7153 8941 8942 28
7154 8941 8943 28
7155 8941 8944 28
7156 8941 8945 28
7157 8946 8947 28
7158 8946 8948 28
7159 8946 8949 28
7160 8946 8950 28
7161 8951 8952 28
7162 8951 8953 28
7163 8951 8954 28
7164 8951 8955 28
7165 8956 8957 28
7166 8956 8958 28
7167 8956 8959 28
7168 8956 8960 28
7169 8961 8962 28
7170 8961 8963 28
7171 8961 8964 28
7172 8961 8965 28
7173 8966 8967 28
7174 8966 8968 28
7175 8966 8969 28
7176 8966 8970 28
7177 8971 8972 28
7178 8971 8973 28
7179 8971 8974 28
7180 8971 8975 28
7181 8976 8977 28
7182 8976 8978 28
7183 8976 8979 28
7184 8976 8980 28
7185 8981 8982 28
7186 8981 8983 28
7187 8981 8984 28
7188 8981 8985 28
7189 8986 8987 28
7190 8986 8988 28
7191 8986 8989 28
7192 8986 8990 28
7193 8991 8992 28
7194 8991 8993 28
7195 8991 8994 28
7196 8991 8995 28
7197 8996 8997 28
7198 8996 8998 28
7199 8996 8999 28
7200 8996 9000 28
7201 9001 9002 28
7202 9001 9003 28
7203 9001 9004 28
7204 9001 9005 28
7205 9006 9007 28
7206 9006 9008 28
7207 9006 9009 28
7208 9006 9010 28
7209 9011 9012 28
7210 9011 9013 28
7211 9011 9014 28
7212 9011 9015 28
7213 9016 9017 28
7214 9016 9018 28
7215 9016 9019 28
7216 9016 9020 28
7217 9021 9022 28
7218 9021 9023 28
7219 9021 9024 28
7220 9021 9025 28
7221 9026 9027 28
7222 9026 9028 28
7223 9026 9029 28
7224 9026 9030 28
7225 9031 9032 28
7226 9031 9033 28
7227 9031 9034 28
7228 9031 9035 28
7229 9036 9037 28
7230 9036 9038 28
7231 9036 9039 28
7232 9036 9040 28
7233 9041 9042 28
7234 9041 9043 28
7235 9041 9044 28
7236 9041 9045 28
7237 9046 9047 28
7238 9046 9048 28
7239 9046 9049 28
7240 9046 9050 28
7241 9051 9052 28
7242 9051 9053 28
7243 9051 9054 28
7244 9051 9055 28
7245 9056 9057 28
7246 9056 9058 28
7247 9056 9059 28
7248 9056 9060 28
7249 9061 9062 28
7250 9061 9063 28
7251 9061 9064 28
7252 9061 9065 28
7253 9066 9067 28
7254 9066 9068 28
7255 9066 9069 28
7256 9066 9070 28
7257 9071 9072 28
7258 9071 9073 28
7259 9071 9074 28
7260 9071 9075 28
7261 9076 9077 28
7262 9076 9078 28
7263 9076 9079 28
7264 9076 9080 28
7265 9081 9082 28
7266 9081 9083 28
7267 9081 9084 28
7268 9081 9085 28
7269 9086 9087 28
7270 9086 9088 28
7271 9086 9089 28
7272 9086 9090 28
7273 9091 9092 28
7274 9091 9093 28
7275 9091 9094 28
7276 9091 9095 28
7277 9096 9097 28
7278 9096 9098 28
7279 9096 9099 28
7280 9096 9100 28
7281 9101 9102 28
7282 9101 9103 28
7283 9101 9104 28
7284 9101 9105 28
7285 9106 9107 28
7286 9106 9108 28
7287 9106 9109 28
7288 9106 9110 28
7289 9111 9112 28
7290 9111 9113 28
7291 9111 9114 28
7292 9111 9115 28
7293 9116 9117 28
7294 9116 9118 28
7295 9116 9119 28
7296 9116 9120 28
7297 9121 9122 28
7298 9121 9123 28
7299 9121 9124 28
7300 9121 9125 28
7301 9126 9127 28
7302 9126 9128 28
7303 9126 9129 28
7304 9126 9130 28
7305 9131 9132 28
7306 9131 9133 28
7307 9131 9134 28
7308 9131 9135 28
7309 9136 9137 28
7310 9136 9138 28
7311 9136 9139 28
7312 9136 9140 28
7313 9141 9142 28
7314 9141 9143 28
7315 9141 9144 28
7316 9141 9145 28
7317 9146 9147 28
7318 9146 9148 28
7319 9146 9149 28
7320 9146 9150 28
7321 9151 9152 28
7322 9151 9153 28
7323 9151 9154 28
7324 9151 9155 28
7325 9156 9157 28
7326 9156 9158 28
7327 9156 9159 28
7328 9156 9160 28
7329 9161 9162 28
7330 9161 9163 28
7331 9161 9164 28
7332 9161 9165 28
7333 9166 9167 28
7334 9166 9168 28
7335 9166 9169 28
7336 9166 9170 28
7337 9171 9172 28
7338 9171 9173 28
7339 9171 9174 28
7340 9171 9175 28
7341 9176 9177 28
7342 9176 9178 28
7343 9176 9179 28
7344 9176 9180 28
7345 9181 9182 28
7346 9181 9183 28
7347 9181 9184 28
7348 9181 9185 28
7349 9186 9187 28
7350 9186 9188 28
7351 9186 9189 28
7352 9186 9190 28
7353 9191 9192 28
7354 9191 9193 28
7355 9191 9194 28
7356 9191 9195 28
7357 9196 9197 28
7358 9196 9198 28
7359 9196 9199 28
7360 9196 9200 28
7361 9201 9202 28
7362 9201 9203 28
7363 9201 9204 28
7364 9201 9205 28
7365 9206 9207 28
7366 9206 9208 28
7367 9206 9209 28
7368 9206 9210 28
7369 9211 9212 28
7370 9211 9213 28
7371 9211 9214 28
7372 9211 9215 28
7373 9216 9217 28
7374 9216 9218 28
7375 9216 9219 28
7376 9216 9220 28
7377 9221 9222 28
7378 9221 9223 28
7379 9221 9224 28
7380 9221 9225 28
7381 9226 9227 28
7382 9226 9228 28
7383 9226 9229 28
7384 9226 9230 28
7385 9231 9232 28
7386 9231 9233 28
7387 9231 9234 28
7388 9231 9235 28
7389 9236 9237 28
7390 9236 9238 28
7391 9236 9239 28
7392 9236 9240 28
7393 9241 9242 28
7394 9241 9243 28
7395 9241 9244 28
7396 9241 9245 28
7397 9246 9247 28
7398 9246 9248 28
7399 9246 9249 28
7400 9246 9250 28
7401 9251 9252 28
7402 9251 9253 28
7403 9251 9254 28
7404 9251 9255 28
7405 9256 9257 28
7406 9256 9258 28
7407 9256 9259 28
7408 9256 9260 28
7409 9261 9262 28
7410 9261 9263 28
7411 9261 9264 28
7412 9261 9265 28
7413 9266 9267 28
7414 9266 9268 28
7415 9266 9269 28
7416 9266 9270 28
7417 9271 9272 28
7418 9271 9273 28
7419 9271 9274 28
7420 9271 9275 28
7421 9276 9277 28
7422 9276 9278 28
7423 9276 9279 28
7424 9276 9280 28
7425 9281 9282 28
7426 9281 9283 28
7427 9281 9284 28
7428 9281 9285 28
7429 9286 9287 28
7430 9286 9288 28
7431 9286 9289 28
7432 9286 9290 28
7433 9291 9292 28
7434 9291 9293 28
7435 9291 9294 28
7436 9291 9295 28
7437 9296 9297 28
7438 9296 9298 28
7439 9296 9299 28
7440 9296 9300 28
7441 9301 9302 28
7442 9301 9303 28
7443 9301 9304 28
7444 9301 9305 28
7445 9306 9307 28
7446 9306 9308 28
7447 9306 9309 28
7448 9306 9310 28
7449 9311 9312 28
7450 9311 9313 28
7451 9311 9314 28
7452 9311 9315 28
7453 9316 9317 28
7454 9316 9318 28
7455 9316 9319 28
7456 9316 9320 28
7457 9321 9322 28
7458 9321 9323 28
7459 9321 9324 28
7460 9321 9325 28
7461 9326 9327 28
7462 9326 9328 28
7463 9326 9329 28
7464 9326 9330 28
7465 9331 9332 28
7466 9331 9333 28
7467 9331 9334 28
7468 9331 9335 28
7469 9336 9337 28
7470 9336 9338 28
7471 9336 9339 28
7472 9336 9340 28
7473 9341 9342 28
7474 9341 9343 28
7475 9341 9344 28
7476 9341 9345 28
7477 9346 9347 28
7478 9346 9348 28
7479 9346 9349 28
7480 9346 9350 28
7481 9351 9352 28
7482 9351 9353 28
7483 9351 9354 28
7484 9351 9355 28
7485 9356 9357 28
7486 9356 9358 28
7487 9356 9359 28
7488 9356 9360 28
7489 9361 9362 28
7490 9361 9363 28
7491 9361 9364 28
7492 9361 9365 28
7493 9366 9367 28
7494 9366 9368 28
7495 9366 9369 28
7496 9366 9370 28
7497 9371 9372 28
7498 9371 9373 28
7499 9371 9374 28
7500 9371 9375 28
7501 9376 9377 28
7502 9376 9378 28
7503 9376 9379 28
7504 9376 9380 28
7505 9381 9382 28
7506 9381 9383 28
7507 9381 9384 28
7508 9381 9385 28
7509 9386 9387 28
7510 9386 9388 28
7511 9386 9389 28
7512 9386 9390 28
7513 9391 9392 28
7514 9391 9393 28
7515 9391 9394 28
7516 9391 9395 28
7517 9396 9397 28
7518 9396 9398 28
7519 9396 9399 28
7520 9396 9400 28
7521 9401 9402 28
7522 9401 9403 28
7523 9401 9404 28
7524 9401 9405 28
7525 9406 9407 28
7526 9406 9408 28
7527 9406 9409 28
7528 9406 9410 28
7529 9411 9412 28
7530 9411 9413 28
7531 9411 9414 28
7532 9411 9415 28
7533 9416 9417 28
7534 9416 9418 28
7535 9416 9419 28
7536 9416 9420 28
7537 9421 9422 28
7538 9421 9423 28
7539 9421 9424 28
7540 9421 9425 28
7541 9426 9427 28
7542 9426 9428 28
7543 9426 9429 28
7544 9426 9430 28
7545 9431 9432 28
7546 9431 9433 28
7547 9431 9434 28
7548 9431 9435 28
7549 9436 9437 28
7550 9436 9438 28
7551 9436 9439 28
7552 9436 9440 28
7553 9441 9442 28
7554 9441 9443 28
7555 9441 9444 28
7556 9441 9445 28
7557 9446 9447 28
7558 9446 9448 28
7559 9446 9449 28
7560 9446 9450 28
7561 9451 9452 28
7562 9451 9453 28
7563 9451 9454 28
7564 9451 9455 28
7565 9456 9457 28
7566 9456 9458 28
7567 9456 9459 28
7568 9456 9460 28
7569 9461 9462 28
7570 9461 9463 28
7571 9461 9464 28
7572 9461 9465 28
7573 9466 9467 28
7574 9466 9468 28
7575 9466 9469 28
7576 9466 9470 28
7577 9471 9472 28
7578 9471 9473 28
7579 9471 9474 28
7580 9471 9475 28
7581 9476 9477 28
7582 9476 9478 28
7583 9476 9479 28
7584 9476 9480 28
7585 9481 9482 28
7586 9481 9483 28
7587 9481 9484 28
7588 9481 9485 28
7589 9486 9487 28
7590 9486 9488 28
7591 9486 9489 28
7592 9486 9490 28
7593 9491 9492 28
7594 9491 9493 28
7595 9491 9494 28
7596 9491 9495 28
7597 9496 9497 28
7598 9496 9498 28
7599 9496 9499 28
7600 9496 9500 28
7601 9501 9502 28
7602 9501 9503 28
7603 9501 9504 28
7604 9501 9505 28
7605 9506 9507 28
7606 9506 9508 28
7607 9506 9509 28
7608 9506 9510 28
7609 9511 9512 28
7610 9511 9513 28
7611 9511 9514 28
7612 9511 9515 28
7613 9516 9517 28
7614 9516 9518 28
7615 9516 9519 28
7616 9516 9520 28
7617 9521 9522 28
7618 9521 9523 28
7619 9521 9524 28
7620 9521 9525 28
7621 9526 9527 28
7622 9526 9528 28
7623 9526 9529 28
7624 9526 9530 28
7625 9531 9532 28
7626 9531 9533 28
7627 9531 9534 28
7628 9531 9535 28
7629 9536 9537 28
7630 9536 9538 28
7631 9536 9539 28
7632 9536 9540 28
7633 9541 9542 28
7634 9541 9543 28
7635 9541 9544 28
7636 9541 9545 28
7637 9546 9547 28
7638 9546 9548 28
7639 9546 9549 28
7640 9546 9550 28
7641 9551 9552 28
7642 9551 9553 28
7643 9551 9554 28
7644 9551 9555 28
7645 9556 9557 28
7646 9556 9558 28
7647 9556 9559 28
7648 9556 9560 28
7649 9561 9562 28
7650 9561 9563 28
7651 9561 9564 28
7652 9561 9565 28
7653 9566 9567 28
7654 9566 9568 28
7655 9566 9569 28
7656 9566 9570 28
7657 9571 9572 28
7658 9571 9573 28
7659 9571 9574 28
7660 9571 9575 28
7661 9576 9577 28
7662 9576 9578 28
7663 9576 9579 28
7664 9576 9580 28
7665 9581 9582 28
7666 9581 9583 28
7667 9581 9584 28
7668 9581 9585 28
7669 9586 9587 28
7670 9586 9588 28
7671 9586 9589 28
7672 9586 9590 28
7673 9591 9592 28
7674 9591 9593 28
7675 9591 9594 28
7676 9591 9595 28
7677 9596 9597 28
7678 9596 9598 28
7679 9596 9599 28
7680 9596 9600 28
7681 9601 9602 28
7682 9601 9603 28
7683 9601 9604 28
7684 9601 9605 28
7685 9606 9607 28
7686 9606 9608 28
7687 9606 9609 28
7688 9606 9610 28
7689 9611 9612 28
7690 9611 9613 28
7691 9611 9614 28
7692 9611 9615 28
7693 9616 9617 28
7694 9616 9618 28
7695 9616 9619 28
7696 9616 9620 28
7697 9621 9622 28
7698 9621 9623 28
7699 9621 9624 28
7700 9621 9625 28
7701 9626 9627 28
7702 9626 9628 28
7703 9626 9629 28
7704 9626 9630 28
7705 9631 9632 28
7706 9631 9633 28
7707 9631 9634 28
7708 9631 9635 28
7709 9636 9637 28
7710 9636 9638 28
7711 9636 9639 28
7712 9636 9640 28
7713 9641 9642 28
7714 9641 9643 28
7715 9641 9644 28
7716 9641 9645 28
7717 9646 9647 28
7718 9646 9648 28
7719 9646 9649 28
7720 9646 9650 28
7721 9651 9652 28
7722 9651 9653 28
7723 9651 9654 28
7724 9651 9655 28
7725 9656 9657 28
7726 9656 9658 28
7727 9656 9659 28
7728 9656 9660 28
7729 9661 9662 28
7730 9661 9663 28
7731 9661 9664 28
7732 9661 9665 28
7733 9666 9667 28
7734 9666 9668 28
7735 9666 9669 28
7736 9666 9670 28
7737 9671 9672 28
7738 9671 9673 28
7739 9671 9674 28
7740 9671 9675 28
7741 9676 9677 28
7742 9676 9678 28
7743 9676 9679 28
7744 9676 9680 28
7745 9681 9682 28
7746 9681 9683 28
7747 9681 9684 28
7748 9681 9685 28
7749 9686 9687 28
7750 9686 9688 28
7751 9686 9689 28
7752 9686 9690 28
7753 9691 9692 28
7754 9691 9693 28
7755 9691 9694 28
7756 9691 9695 28
7757 9696 9697 28
7758 9696 9698 28
7759 9696 9699 28
7760 9696 9700 28
7761 9701 9702 28
7762 9701 9703 28
7763 9701 9704 28
7764 9701 9705 28
7765 9706 9707 28
7766 9706 9708 28
7767 9706 9709 28
7768 9706 9710 28
7769 9711 9712 28
7770 9711 9713 28
7771 9711 9714 28
7772 9711 9715 28
7773 9716 9717 28
7774 9716 9718 28
7775 9716 9719 28
7776 9716 9720 28
7777 9721 9722 28
7778 9721 9723 28
7779 9721 9724 28
7780 9721 9725 28
7781 9726 9727 28
7782 9726 9728 28
7783 9726 9729 28
7784 9726 9730 28
7785 9731 9732 28
7786 9731 9733 28
7787 9731 9734 28
7788 9731 9735 28
7789 9736 9737 28
7790 9736 9738 28
7791 9736 9739 28
7792 9736 9740 28
7793 9741 9742 28
7794 9741 9743 28
7795 9741 9744 28
7796 9741 9745 28
7797 9746 9747 28
7798 9746 9748 28
7799 9746 9749 28
7800 9746 9750 28
7801 9751 9752 28
7802 9751 9753 28
7803 9751 9754 28
7804 9751 9755 28
7805 9756 9757 28
7806 9756 9758 28
7807 9756 9759 28
7808 9756 9760 28
7809 9761 9762 28
7810 9761 9763 28
7811 9761 9764 28
7812 9761 9765 28
7813 9766 9767 28
7814 9766 9768 28
7815 9766 9769 28
7816 9766 9770 28
7817 9771 9772 28
7818 9771 9773 28
7819 9771 9774 28
7820 9771 9775 28
7821 9776 9777 28
7822 9776 9778 28
7823 9776 9779 28
7824 9776 9780 28
7825 9781 9782 28
7826 9781 9783 28
7827 9781 9784 28
7828 9781 9785 28
7829 9786 9787 28
7830 9786 9788 28
7831 9786 9789 28
7832 9786 9790 28
7833 9791 9792 28
7834 9791 9793 28
7835 9791 9794 28
7836 9791 9795 28
7837 9796 9797 28
7838 9796 9798 28
7839 9796 9799 28
7840 9796 9800 28
7841 9801 9802 28
7842 9801 9803 28
7843 9801 9804 28
7844 9801 9805 28
7845 9806 9807 28
7846 9806 9808 28
7847 9806 9809 28
7848 9806 9810 28
7849 9811 9812 28
7850 9811 9813 28
7851 9811 9814 28
7852 9811 9815 28
7853 9816 9817 28
7854 9816 9818 28
7855 9816 9819 28
7856 9816 9820 28
7857 9821 9822 28
7858 9821 9823 28
7859 9821 9824 28
7860 9821 9825 28
7861 9826 9827 28
7862 9826 9828 28
7863 9826 9829 28
7864 9826 9830 28
7865 9831 9832 28
7866 9831 9833 28
7867 9831 9834 28
7868 9831 9835 28
7869 9836 9837 28
7870 9836 9838 28
7871 9836 9839 28
7872 9836 9840 28
7873 9841 9842 28
7874 9841 9843 28
7875 9841 9844 28
7876 9841 9845 28
7877 9846 9847 28
7878 9846 9848 28
7879 9846 9849 28
7880 9846 9850 28
7881 9851 9852 28
7882 9851 9853 28
7883 9851 9854 28
7884 9851 9855 28
7885 9856 9857 28
7886 9856 9858 28
7887 9856 9859 28
7888 9856 9860 28
7889 9861 9862 28
7890 9861 9863 28
7891 9861 9864 28
7892 9861 9865 28
7893 9866 9867 28
7894 9866 9868 28
7895 9866 9869 28
7896 9866 9870 28
7897 9871 9872 28
7898 9871 9873 28
7899 9871 9874 28
7900 9871 9875 28
7901 9876 9877 28
7902 9876 9878 28
7903 9876 9879 28
7904 9876 9880 28
7905 9881 9882 28
7906 9881 9883 28
7907 9881 9884 28
7908 9881 9885 28
7909 9886 9887 28
7910 9886 9888 28
7911 9886 9889 28
7912 9886 9890 28
7913 9891 9892 28
7914 9891 9893 28
7915 9891 9894 28
7916 9891 9895 28
7917 9896 9897 28
7918 9896 9898 28
7919 9896 9899 28
7920 9896 9900 28
7921 9901 9902 28
7922 9901 9903 28
7923 9901 9904 28
7924 9901 9905 28
7925 9906 9907 28
7926 9906 9908 28
7927 9906 9909 28
7928 9906 9910 28
7929 9911 9912 28
7930 9911 9913 28
7931 9911 9914 28
7932 9911 9915 28
7933 9916 9917 28
7934 9916 9918 28
7935 9916 9919 28
7936 9916 9920 28
7937 9921 9922 28
7938 9921 9923 28
7939 9921 9924 28
7940 9921 9925 28
7941 9926 9927 28
7942 9926 9928 28
7943 9926 9929 28
7944 9926 9930 28
7945 9931 9932 28
7946 9931 9933 28
7947 9931 9934 28
7948 9931 9935 28
7949 9936 9937 28
7950 9936 9938 28
7951 9936 9939 28
7952 9936 9940 28
7953 9941 9942 28
7954 9941 9943 28
7955 9941 9944 28
7956 9941 9945 28
7957 9946 9947 28
7958 9946 9948 28
7959 9946 9949 28
7960 9946 9950 28
7961 9951 9952 28
7962 9951 9953 28
7963 9951 9954 28
7964 9951 9955 28
7965 9956 9957 28
7966 9956 9958 28
7967 9956 9959 28
7968 9956 9960 28
7969 9961 9962 28
7970 9961 9963 28
7971 9961 9964 28
7972 9961 9965 28
7973 9966 9967 28
7974 9966 9968 28
7975 9966 9969 28
7976 9966 9970 28
7977 9971 9972 28
7978 9971 9973 28
7979 9971 9974 28
7980 9971 9975 28
7981 9976 9977 28
7982 9976 9978 28
7983 9976 9979 28
7984 9976 9980 28
7985 9981 9982 28
7986 9981 9983 28
7987 9981 9984 28
7988 9981 9985 28
7989 9986 9987 28
7990 9986 9988 28
7991 9986 9989 28
7992 9986 9990 28
7993 9991 9992 28
7994 9991 9993 28
7995 9991 9994 28
7996 9991 9995 28
7997 9996 9997 28
7998 9996 9998 28
7999 9996 9999 28
8000 9996 10000 28
8001 10001 10002 28
8002 10001 10003 28
8003 10001 10004 28
8004 10001 10005 28
8005 10006 10007 28
8006 10006 10008 28
8007 10006 10009 28
8008 10006 10010 28
8009 10011 10012 28
8010 10011 10013 28
8011 10011 10014 28
8012 10011 10015 28
8013 10016 10017 28
8014 10016 10018 28
8015 10016 10019 28
8016 10016 10020 28
8017 10021 10022 28
8018 10021 10023 28
8019 10021 10024 28
8020 10021 10025 28
8021 10026 10027 28
8022 10026 10028 28
8023 10026 10029 28
8024 10026 10030 28
8025 10031 10032 28
8026 10031 10033 28
8027 10031 10034 28
8028 10031 10035 28
8029 10036 10037 28
8030 10036 10038 28
8031 10036 10039 28
8032 10036 10040 28
8033 10041 10042 28
8034 10041 10043 28
8035 10041 10044 28
8036 10041 10045 28
8037 10046 10047 28
8038 10046 10048 28
8039 10046 10049 28
8040 10046 10050 28
8041 10051 10052 28
8042 10051 10053 28
8043 10051 10054 28
8044 10051 10055 28
8045 10056 10057 28
8046 10056 10058 28
8047 10056 10059 28
8048 10056 10060 28
8049 10061 10062 28
8050 10061 10063 28
8051 10061 10064 28
8052 10061 10065 28
8053 10066 10067 28
8054 10066 10068 28
8055 10066 10069 28
8056 10066 10070 28
8057 10071 10072 28
8058 10071 10073 28
8059 10071 10074 28
8060 10071 10075 28
8061 10076 10077 28
8062 10076 10078 28
8063 10076 10079 28
8064 10076 10080 28
8065 10081 10082 28
8066 10081 10083 28
8067 10081 10084 28
8068 10081 10085 28
8069 10086 10087 28
8070 10086 10088 28
8071 10086 10089 28
8072 10086 10090 28
8073 10091 10092 28
8074 10091 10093 28
8075 10091 10094 28
8076 10091 10095 28
8077 10096 10097 28
8078 10096 10098 28
8079 10096 10099 28
8080 10096 10100 28
8081 10101 10102 28
8082 10101 10103 28
8083 10101 10104 28
8084 10101 10105 28
8085 10106 10107 28
8086 10106 10108 28
8087 10106 10109 28
8088 10106 10110 28
8089 10111 10112 28
8090 10111 10113 28
8091 10111 10114 28
8092 10111 10115 28
8093 10116 10117 28
8094 10116 10118 28
8095 10116 10119 28
8096 10116 10120 28
8097 10121 10122 28
8098 10121 10123 28
8099 10121 10124 28
8100 10121 10125 28
8101 10126 10127 28
8102 10126 10128 28
8103 10126 10129 28
8104 10126 10130 28
8105 10131 10132 28
8106 10131 10133 28
8107 10131 10134 28
8108 10131 10135 28
8109 10136 10137 28
8110 10136 10138 28
8111 10136 10139 28
8112 10136 10140 28
8113 10141 10142 28
8114 10141 10143 28
8115 10141 10144 28
8116 10141 10145 28
8117 10146 10147 28
8118 10146 10148 28
8119 10146 10149 28
8120 10146 10150 28
8121 10151 10152 28
8122 10151 10153 28
8123 10151 10154 28
8124 10151 10155 28
8125 10156 10157 28
8126 10156 10158 28
8127 10156 10159 28
8128 10156 10160 28
8129 10161 10162 28
8130 10161 10163 28
8131 10161 10164 28
8132 10161 10165 28
8133 10166 10167 28
8134 10166 10168 28
8135 10166 10169 28
8136 10166 10170 28
8137 10171 10172 28
8138 10171 10173 28
8139 10171 10174 28
8140 10171 10175 28
8141 10176 10177 28
8142 10176 10178 28
8143 10176 10179 28
8144 10176 10180 28
8145 10181 10182 28
8146 10181 10183 28
8147 10181 10184 28
8148 10181 10185 28
8149 10186 10187 28
8150 10186 10188 28
8151 10186 10189 28
8152 10186 10190 28
8153 10191 10192 28
8154 10191 10193 28
8155 10191 10194 28
8156 10191 10195 28
8157 10196 10197 28
8158 10196 10198 28
8159 10196 10199 28
8160 10196 10200 28
8161 10201 10202 28
8162 10201 10203 28
8163 10201 10204 28
8164 10201 10205 28
8165 10206 10207 28
8166 10206 10208 28
8167 10206 10209 28
8168 10206 10210 28
8169 10211 10212 28
8170 10211 10213 28
8171 10211 10214 28
8172 10211 10215 28
8173 10216 10217 28
8174 10216 10218 28
8175 10216 10219 28
8176 10216 10220 28
8177 10221 10222 28
8178 10221 10223 28
8179 10221 10224 28
8180 10221 10225 28
8181 10226 10227 28
8182 10226 10228 28
8183 10226 10229 28
8184 10226 10230 28
8185 10231 10232 28
8186 10231 10233 28
8187 10231 10234 28
8188 10231 10235 28
8189 10236 10237 28
8190 10236 10238 28
8191 10236 10239 28
8192 10236 10240 28
8193 10241 10242 28
8194 10241 10243 28
8195 10241 10244 28
8196 10241 10245 28
8197 10246 10247 28
8198 10246 10248 28
8199 10246 10249 28
8200 10246 10250 28
8201 10251 10252 28
8202 10251 10253 28
8203 10251 10254 28
8204 10251 10255 28
8205 10256 10257 28
8206 10256 10258 28
8207 10256 10259 28
8208 10256 10260 28
8209 10261 10262 28
8210 10261 10263 28
8211 10261 10264 28
8212 10261 10265 28
8213 10266 10267 28
8214 10266 10268 28
8215 10266 10269 28
8216 10266 10270 28
8217 10271 10272 28
8218 10271 10273 28
8219 10271 10274 28
8220 10271 10275 28
8221 10276 10277 28
8222 10276 10278 28
8223 10276 10279 28
8224 10276 10280 28
8225 10281 10282 28
8226 10281 10283 28
8227 10281 10284 28
8228 10281 10285 28
8229 10286 10287 28
8230 10286 10288 28
8231 10286 10289 28
8232 10286 10290 28
8233 10291 10292 28
8234 10291 10293 28
8235 10291 10294 28
8236 10291 10295 28
8237 10296 10297 28
8238 10296 10298 28
8239 10296 10299 28
8240 10296 10300 28
8241 10301 10302 28
8242 10301 10303 28
8243 10301 10304 28
8244 10301 10305 28
8245 10306 10307 28
8246 10306 10308 28
8247 10306 10309 28
8248 10306 10310 28
8249 10311 10312 28
8250 10311 10313 28
8251 10311 10314 28
8252 10311 10315 28
8253 10316 10317 28
8254 10316 10318 28
8255 10316 10319 28
8256 10316 10320 28
8257 10321 10322 28
8258 10321 10323 28
8259 10321 10324 28
8260 10321 10325 28
8261 10326 10327 28
8262 10326 10328 28
8263 10326 10329 28
8264 10326 10330 28
8265 10331 10332 28
8266 10331 10333 28
8267 10331 10334 28
8268 10331 10335 28
8269 10336 10337 28
8270 10336 10338 28
8271 10336 10339 28
8272 10336 10340 28
8273 10341 10342 28
8274 10341 10343 28
8275 10341 10344 28
8276 10341 10345 28
8277 10346 10347 28
8278 10346 10348 28
8279 10346 10349 28
8280 10346 10350 28
8281 10351 10352 28
8282 10351 10353 28
8283 10351 10354 28
8284 10351 10355 28
8285 10356 10357 28
8286 10356 10358 28
8287 10356 10359 28
8288 10356 10360 28
8289 10361 10362 28
8290 10361 10363 28
8291 10361 10364 28
8292 10361 10365 28
8293 10366 10367 28
8294 10366 10368 28
8295 10366 10369 28
8296 10366 10370 28
8297 10371 10372 28
8298 10371 10373 28
8299 10371 10374 28
8300 10371 10375 28
8301 10376 10377 28
8302 10376 10378 28
8303 10376 10379 28
8304 10376 10380 28
8305 10381 10382 28
8306 10381 10383 28
8307 10381 10384 28
8308 10381 10385 28
8309 10386 10387 28
8310 10386 10388 28
8311 10386 10389 28
8312 10386 10390 28
8313 10391 10392 28
8314 10391 10393 28
8315 10391 10394 28
8316 10391 10395 28
8317 10396 10397 28
8318 10396 10398 28
8319 10396 10399 28
8320 10396 10400 28
8321 10401 10402 28
8322 10401 10403 28
8323 10401 10404 28
8324 10401 10405 28
8325 10406 10407 28
8326 10406 10408 28
8327 10406 10409 28
8328 10406 10410 28
8329 10411 10412 28
8330 10411 10413 28
8331 10411 10414 28
8332 10411 10415 28
8333 10416 10417 28
8334 10416 10418 28
8335 10416 10419 28
8336 10416 10420 28
8337 10421 10422 28
8338 10421 10423 28
8339 10421 10424 28
8340 10421 10425 28
8341 10426 10427 28
8342 10426 10428 28
8343 10426 10429 28
8344 10426 10430 28
8345 10431 10432 28
8346 10431 10433 28
8347 10431 10434 28
8348 10431 10435 28
8349 10436 10437 28
8350 10436 10438 28
8351 10436 10439 28
8352 10436 10440 28
8353 10441 10442 28
8354 10441 10443 28
8355 10441 10444 28
8356 10441 10445 28
8357 10446 10447 28
8358 10446 10448 28
8359 10446 10449 28
8360 10446 10450 28
8361 10451 10452 28
8362 10451 10453 28
8363 10451 10454 28
8364 10451 10455 28
8365 10456 10457 28
8366 10456 10458 28
8367 10456 10459 28
8368 10456 10460 28
8369 10461 10462 28
8370 10461 10463 28
8371 10461 10464 28
8372 10461 10465 28
8373 10466 10467 28
8374 10466 10468 28
8375 10466 10469 28
8376 10466 10470 28
8377 10471 10472 28
8378 10471 10473 28
8379 10471 10474 28
8380 10471 10475 28
8381 10476 10477 28
8382 10476 10478 28
8383 10476 10479 28
8384 10476 10480 28
8385 10481 10482 28
8386 10481 10483 28
8387 10481 10484 28
8388 10481 10485 28
8389 10486 10487 28
8390 10486 10488 28
8391 10486 10489 28
8392 10486 10490 28
8393 10491 10492 28
8394 10491 10493 28
8395 10491 10494 28
8396 10491 10495 28
8397 10496 10497 28
8398 10496 10498 28
8399 10496 10499 28
8400 10496 10500 28
8401 10501 10502 28
8402 10501 10503 28
8403 10501 10504 28
8404 10501 10505 28
8405 10506 10507 28
8406 10506 10508 28
8407 10506 10509 28
8408 10506 10510 28
8409 10511 10512 28
8410 10511 10513 28
8411 10511 10514 28
8412 10511 10515 28
8413 10516 10517 28
8414 10516 10518 28
8415 10516 10519 28
8416 10516 10520 28
8417 10521 10522 28
8418 10521 10523 28
8419 10521 10524 28
8420 10521 10525 28
8421 10526 10527 28
8422 10526 10528 28
8423 10526 10529 28
8424 10526 10530 28
8425 10531 10532 28
8426 10531 10533 28
8427 10531 10534 28
8428 10531 10535 28
8429 10536 10537 28
8430 10536 10538 28
8431 10536 10539 28
8432 10536 10540 28
8433 10541 10542 28
8434 10541 10543 28
8435 10541 10544 28
8436 10541 10545 28
8437 10546 10547 28
8438 10546 10548 28
8439 10546 10549 28
8440 10546 10550 28
8441 10551 10552 28
8442 10551 10553 28
8443 10551 10554 28
8444 10551 10555 28
8445 10556 10557 28
8446 10556 10558 28
8447 10556 10559 28
8448 10556 10560 28
8449 10561 10562 28
8450 10561 10563 28
8451 10561 10564 28
8452 10561 10565 28
8453 10566 10567 28
8454 10566 10568 28
8455 10566 10569 28
8456 10566 10570 28
8457 10571 10572 28
8458 10571 10573 28
8459 10571 10574 28
8460 10571 10575 28
8461 10576 10577 28
8462 10576 10578 28
8463 10576 10579 28
8464 10576 10580 28
8465 10581 10582 28
8466 10581 10583 28
8467 10581 10584 28
8468 10581 10585 28
8469 10586 10587 28
8470 10586 10588 28
8471 10586 10589 28
8472 10586 10590 28
8473 10591 10592 28
8474 10591 10593 28
8475 10591 10594 28
8476 10591 10595 28
8477 10596 10597 28
8478 10596 10598 28
8479 10596 10599 28
8480 10596 10600 28
8481 10601 10602 28
8482 10601 10603 28
8483 10601 10604 28
8484 10601 10605 28
8485 10606 10607 28
8486 10606 10608 28
8487 10606 10609 28
8488 10606 10610 28
8489 10611 10612 28
8490 10611 10613 28
8491 10611 10614 28
8492 10611 10615 28
8493 10616 10617 28
8494 10616 10618 28
8495 10616 10619 28
8496 10616 10620 28
8497 10621 10622 28
8498 10621 10623 28
8499 10621 10624 28
8500 10621 10625 28
8501 10626 10627 28
8502 10626 10628 28
8503 10626 10629 28
8504 10626 10630 28
8505 10631 10632 28
8506 10631 10633 28
8507 10631 10634 28
8508 10631 10635 28
8509 10636 10637 28
8510 10636 10638 28
8511 10636 10639 28
8512 10636 10640 28
8513 10641 10642 28
8514 10641 10643 28
8515 10641 10644 28
8516 10641 10645 28
8517 10646 10647 28
8518 10646 10648 28
8519 10646 10649 28
8520 10646 10650 28
8521 10651 10652 28
8522 10651 10653 28
8523 10651 10654 28
8524 10651 10655 28
8525 10656 10657 28
8526 10656 10658 28
8527 10656 10659 28
8528 10656 10660 28
8529 10661 10662 28
8530 10661 10663 28
8531 10661 10664 28
8532 10661 10665 28
8533 10666 10667 28
8534 10666 10668 28
8535 10666 10669 28
8536 10666 10670 28
8537 10671 10672 28
8538 10671 10673 28
8539 10671 10674 28
8540 10671 10675 28
8541 10676 10677 28
8542 10676 10678 28
8543 10676 10679 28
8544 10676 10680 28
8545 10681 10682 28
8546 10681 10683 28
8547 10681 10684 28
8548 10681 10685 28
8549 10686 10687 28
8550 10686 10688 28
8551 10686 10689 28
8552 10686 10690 28
8553 10691 10692 28
8554 10691 10693 28
8555 10691 10694 28
8556 10691 10695 28
8557 10696 10697 28
8558 10696 10698 28
8559 10696 10699 28
8560 10696 10700 28
8561 10701 10702 28
8562 10701 10703 28
8563 10701 10704 28
8564 10701 10705 28
8565 10706 10707 28
8566 10706 10708 28
8567 10706 10709 28
8568 10706 10710 28
8569 10711 10712 28
8570 10711 10713 28
8571 10711 10714 28
8572 10711 10715 28
8573 10716 10717 28
8574 10716 10718 28
8575 10716 10719 28
8576 10716 10720 28
8577 10721 10722 28
8578 10721 10723 28
8579 10721 10724 28
8580 10721 10725 28
8581 10726 10727 28
8582 10726 10728 28
8583 10726 10729 28
8584 10726 10730 28
8585 10731 10732 28
8586 10731 10733 28
8587 10731 10734 28
8588 10731 10735 28
8589 10736 10737 28
8590 10736 10738 28
8591 10736 10739 28
8592 10736 10740 28
8593 10741 10742 28
8594 10741 10743 28
8595 10741 10744 28
8596 10741 10745 28
8597 10746 10747 28
8598 10746 10748 28
8599 10746 10749 28
8600 10746 10750 28
8601 10751 10752 28
8602 10751 10753 28
8603 10751 10754 28
8604 10751 10755 28
8605 10756 10757 28
8606 10756 10758 28
8607 10756 10759 28
8608 10756 10760 28
8609 10761 10762 28
8610 10761 10763 28
8611 10761 10764 28
8612 10761 10765 28
8613 10766 10767 28
8614 10766 10768 28
8615 10766 10769 28
8616 10766 10770 28
8617 10771 10772 28
8618 10771 10773 28
8619 10771 10774 28
8620 10771 10775 28
8621 10776 10777 28
8622 10776 10778 28
8623 10776 10779 28
8624 10776 10780 28
8625 10781 10782 28
8626 10781 10783 28
8627 10781 10784 28
8628 10781 10785 28
8629 10786 10787 28
8630 10786 10788 28
8631 10786 10789 28
8632 10786 10790 28
8633 10791 10792 28
8634 10791 10793 28
8635 10791 10794 28
8636 10791 10795 28
8637 10796 10797 28
8638 10796 10798 28
8639 10796 10799 28
8640 10796 10800 28
8641 10801 10802 28
8642 10801 10803 28
8643 10801 10804 28
8644 10801 10805 28
8645 10806 10807 28
8646 10806 10808 28
8647 10806 10809 28
8648 10806 10810 28
8649 10811 10812 28
8650 10811 10813 28
8651 10811 10814 28
8652 10811 10815 28
8653 10816 10817 28
8654 10816 10818 28
8655 10816 10819 28
8656 10816 10820 28
8657 10821 10822 28
8658 10821 10823 28
8659 10821 10824 28
8660 10821 10825 28
8661 10826 10827 28
8662 10826 10828 28
8663 10826 10829 28
8664 10826 10830 28
8665 10831 10832 28
8666 10831 10833 28
8667 10831 10834 28
8668 10831 10835 28
8669 10836 10837 28
8670 10836 10838 28
8671 10836 10839 28
8672 10836 10840 28
8673 10841 10842 28
8674 10841 10843 28
8675 10841 10844 28
8676 10841 10845 28
8677 10846 10847 28
8678 10846 10848 28
8679 10846 10849 28
8680 10846 10850 28
8681 10851 10852 28
8682 10851 10853 28
8683 10851 10854 28
8684 10851 10855 28
8685 10856 10857 28
8686 10856 10858 28
8687 10856 10859 28
8688 10856 10860 28
8689 10861 10862 28
8690 10861 10863 28
8691 10861 10864 28
8692 10861 10865 28
8693 10866 10867 28
8694 10866 10868 28
8695 10866 10869 28
8696 10866 10870 28
8697 10871 10872 28
8698 10871 10873 28
8699 10871 10874 28
8700 10871 10875 28
8701 10876 10877 28
8702 10876 10878 28
8703 10876 10879 28
8704 10876 10880 28
8705 10881 10882 28
8706 10881 10883 28
8707 10881 10884 28
8708 10881 10885 28
8709 10886 10887 28
8710 10886 10888 28
8711 10886 10889 28
8712 10886 10890 28
8713 10891 10892 28
8714 10891 10893 28
8715 10891 10894 28
8716 10891 10895 28
8717 10896 10897 28
8718 10896 10898 28
8719 10896 10899 28
8720 10896 10900 28
8721 10901 10902 28
8722 10901 10903 28
8723 10901 10904 28
8724 10901 10905 28
8725 10906 10907 28
8726 10906 10908 28
8727 10906 10909 28
8728 10906 10910 28
8729 10911 10912 28
8730 10911 10913 28
8731 10911 10914 28
8732 10911 10915 28
8733 10916 10917 28
8734 10916 10918 28
8735 10916 10919 28
8736 10916 10920 28
8737 10921 10922 28
8738 10921 10923 28
8739 10921 10924 28
8740 10921 10925 28
8741 10926 10927 28
8742 10926 10928 28
8743 10926 10929 28
8744 10926 10930 28
8745 10931 10932 28
8746 10931 10933 28
8747 10931 10934 28
8748 10931 10935 28
8749 10936 10937 28
8750 10936 10938 28
8751 10936 10939 28
8752 10936 10940 28
8753 10941 10942 28
8754 10941 10943 28
8755 10941 10944 28
8756 10941 10945 28
8757 10946 10947 28
8758 10946 10948 28
8759 10946 10949 28
8760 10946 10950 28
8761 10951 10952 28
8762 10951 10953 28
8763 10951 10954 28
8764 10951 10955 28
8765 10956 10957 28
8766 10956 10958 28
8767 10956 10959 28
8768 10956 10960 28
8769 10961 10962 28
8770 10961 10963 28
8771 10961 10964 28
8772 10961 10965 28
8773 10966 10967 28
8774 10966 10968 28
8775 10966 10969 28
8776 10966 10970 28
8777 10971 10972 28
8778 10971 10973 28
8779 10971 10974 28
8780 10971 10975 28
8781 10976 10977 28
8782 10976 10978 28
8783 10976 10979 28
8784 10976 10980 28
8785 10981 10982 28
8786 10981 10983 28
8787 10981 10984 28
8788 10981 10985 28
8789 10986 10987 28
8790 10986 10988 28
8791 10986 10989 28
8792 10986 10990 28
8793 10991 10992 28
8794 10991 10993 28
8795 10991 10994 28
8796 10991 10995 28
8797 10996 10997 28
8798 10996 10998 28
8799 10996 10999 28
8800 10996 11000 28
8801 11001 11002 28
8802 11001 11003 28
8803 11001 11004 28
8804 11001 11005 28
8805 11006 11007 28
8806 11006 11008 28
8807 11006 11009 28
8808 11006 11010 28
8809 11011 11012 28
8810 11011 11013 28
8811 11011 11014 28
8812 11011 11015 28
8813 11016 11017 28
8814 11016 11018 28
8815 11016 11019 28
8816 11016 11020 28
8817 11021 11022 28
8818 11021 11023 28
8819 11021 11024 28
8820 11021 11025 28
8821 11026 11027 28
8822 11026 11028 28
8823 11026 11029 28
8824 11026 11030 28
8825 11031 11032 28
8826 11031 11033 28
8827 11031 11034 28
8828 11031 11035 28
8829 11036 11037 28
8830 11036 11038 28
8831 11036 11039 28
8832 11036 11040 28
8833 11041 11042 28
8834 11041 11043 28
8835 11041 11044 28
8836 11041 11045 28
8837 11046 11047 28
8838 11046 11048 28
8839 11046 11049 28
8840 11046 11050 28
8841 11051 11052 28
8842 11051 11053 28
8843 11051 11054 28
8844 11051 11055 28
8845 11056 11057 28
8846 11056 11058 28
8847 11056 11059 28
8848 11056 11060 28
8849 11061 11062 28
8850 11061 11063 28
8851 11061 11064 28
8852 11061 11065 28
8853 11066 11067 28
8854 11066 11068 28
8855 11066 11069 28
8856 11066 11070 28
8857 11071 11072 28
8858 11071 11073 28
8859 11071 11074 28
8860 11071 11075 28
8861 11076 11077 28
8862 11076 11078 28
8863 11076 11079 28
8864 11076 11080 28
8865 11081 11082 28
8866 11081 11083 28
8867 11081 11084 28
8868 11081 11085 28
8869 11086 11087 28
8870 11086 11088 28
8871 11086 11089 28
8872 11086 11090 28
8873 11091 11092 28
8874 11091 11093 28
8875 11091 11094 28
8876 11091 11095 28
8877 11096 11097 28
8878 11096 11098 28
8879 11096 11099 28
8880 11096 11100 28
8881 11101 11102 28
8882 11101 11103 28
8883 11101 11104 28
8884 11101 11105 28
8885 11106 11107 28
8886 11106 11108 28
8887 11106 11109 28
8888 11106 11110 28
8889 11111 11112 28
8890 11111 11113 28
8891 11111 11114 28
8892 11111 11115 28
8893 11116 11117 28
8894 11116 11118 28
8895 11116 11119 28
8896 11116 11120 28
8897 11121 11122 28
8898 11121 11123 28
8899 11121 11124 28
8900 11121 11125 28
8901 11126 11127 28
8902 11126 11128 28
8903 11126 11129 28
8904 11126 11130 28
8905 11131 11132 28
8906 11131 11133 28
8907 11131 11134 28
8908 11131 11135 28
8909 11136 11137 28
8910 11136 11138 28
8911 11136 11139 28
8912 11136 11140 28
8913 11141 11142 28
8914 11141 11143 28
8915 11141 11144 28
8916 11141 11145 28
8917 11146 11147 28
8918 11146 11148 28
8919 11146 11149 28
8920 11146 11150 28
8921 11151 11152 28
8922 11151 11153 28
8923 11151 11154 28
8924 11151 11155 28
8925 11156 11157 28
8926 11156 11158 28
8927 11156 11159 28
8928 11156 11160 28
8929 11161 11162 28
8930 11161 11163 28
8931 11161 11164 28
8932 11161 11165 28
8933 11166 11167 28
8934 11166 11168 28
8935 11166 11169 28
8936 11166 11170 28
8937 11171 11172 28
8938 11171 11173 28
8939 11171 11174 28
8940 11171 11175 28
8941 11176 11177 28
8942 11176 11178 28
8943 11176 11179 28
8944 11176 11180 28
8945 11181 11182 28
8946 11181 11183 28
8947 11181 11184 28
8948 11181 11185 28
8949 11186 11187 28
8950 11186 11188 28
8951 11186 11189 28
8952 11186 11190 28
8953 11191 11192 28
8954 11191 11193 28
8955 11191 11194 28
8956 11191 11195 28
8957 11196 11197 28
8958 11196 11198 28
8959 11196 11199 28
8960 11196 11200 28
8961 11201 11202 28
8962 11201 11203 28
8963 11201 11204 28
8964 11201 11205 28
8965 11206 11207 28
8966 11206 11208 28
8967 11206 11209 28
8968 11206 11210 28
8969 11211 11212 28
8970 11211 11213 28
8971 11211 11214 28
8972 11211 11215 28
8973 11216 11217 28
8974 11216 11218 28
8975 11216 11219 28
8976 11216 11220 28
8977 11221 11222 28
8978 11221 11223 28
8979 11221 11224 28
8980 11221 11225 28
8981 11226 11227 28
8982 11226 11228 28
8983 11226 11229 28
8984 11226 11230 28
8985 11231 11232 28
8986 11231 11233 28
8987 11231 11234 28
8988 11231 11235 28
8989 11236 11237 28
8990 11236 11238 28
8991 11236 11239 28
8992 11236 11240 28
8993 11241 11242 28
8994 11241 11243 28
8995 11241 11244 28
8996 11241 11245 28
8997 11246 11247 28
8998 11246 11248 28
8999 11246 11249 28
9000 11246 11250 28
9001 11251 11252 28
9002 11251 11253 28
9003 11251 11254 28
9004 11251 11255 28
9005 11256 11257 28
9006 11256 11258 28
9007 11256 11259 28
9008 11256 11260 28
9009 11261 11262 28
9010 11261 11263 28
9011 11261 11264 28
9012 11261 11265 28
9013 11266 11267 28
9014 11266 11268 28
9015 11266 11269 28
9016 11266 11270 28
9017 11271 11272 28
9018 11271 11273 28
9019 11271 11274 28
9020 11271 11275 28
9021 11276 11277 28
9022 11276 11278 28
9023 11276 11279 28
9024 11276 11280 28
9025 11281 11282 28
9026 11281 11283 28
9027 11281 11284 28
9028 11281 11285 28
9029 11286 11287 28
9030 11286 11288 28
9031 11286 11289 28
9032 11286 11290 28
9033 11291 11292 28
9034 11291 11293 28
9035 11291 11294 28
9036 11291 11295 28
9037 11296 11297 28
9038 11296 11298 28
9039 11296 11299 28
9040 11296 11300 28
9041 11301 11302 28
9042 11301 11303 28
9043 11301 11304 28
9044 11301 11305 28
9045 11306 11307 28
9046 11306 11308 28
9047 11306 11309 28
9048 11306 11310 28
9049 11311 11312 28
9050 11311 11313 28
9051 11311 11314 28
9052 11311 11315 28
9053 11316 11317 28
9054 11316 11318 28
9055 11316 11319 28
9056 11316 11320 28
9057 11321 11322 28
9058 11321 11323 28
9059 11321 11324 28
9060 11321 11325 28
9061 11326 11327 28
9062 11326 11328 28
9063 11326 11329 28
9064 11326 11330 28
9065 11331 11332 28
9066 11331 11333 28
9067 11331 11334 28
9068 11331 11335 28
9069 11336 11337 28
9070 11336 11338 28
9071 11336 11339 28
9072 11336 11340 28
9073 11341 11342 28
9074 11341 11343 28
9075 11341 11344 28
9076 11341 11345 28
9077 11346 11347 28
9078 11346 11348 28
9079 11346 11349 28
9080 11346 11350 28
9081 11351 11352 28
9082 11351 11353 28
9083 11351 11354 28
9084 11351 11355 28
9085 11356 11357 28
9086 11356 11358 28
9087 11356 11359 28
9088 11356 11360 28
9089 11361 11362 28
9090 11361 11363 28
9091 11361 11364 28
9092 11361 11365 28
9093 11366 11367 28
9094 11366 11368 28
9095 11366 11369 28
9096 11366 11370 28
9097 11371 11372 28
9098 11371 11373 28
9099 11371 11374 28
9100 11371 11375 28
9101 11376 11377 28
9102 11376 11378 28
9103 11376 11379 28
9104 11376 11380 28
9105 11381 11382 28
9106 11381 11383 28
9107 11381 11384 28
9108 11381 11385 28
9109 11386 11387 28
9110 11386 11388 28
9111 11386 11389 28
9112 11386 11390 28
9113 11391 11392 28
9114 11391 11393 28
9115 11391 11394 28
9116 11391 11395 28
9117 11396 11397 28
9118 11396 11398 28
9119 11396 11399 28
9120 11396 11400 28
9121 11401 11402 28
9122 11401 11403 28
9123 11401 11404 28
9124 11401 11405 28
9125 11406 11407 28
9126 11406 11408 28
9127 11406 11409 28
9128 11406 11410 28
9129 11411 11412 28
9130 11411 11413 28
9131 11411 11414 28
9132 11411 11415 28
9133 11416 11417 28
9134 11416 11418 28
9135 11416 11419 28
9136 11416 11420 28
9137 11421 11422 28
9138 11421 11423 28
9139 11421 11424 28
9140 11421 11425 28
9141 11426 11427 28
9142 11426 11428 28
9143 11426 11429 28
9144 11426 11430 28
9145 11431 11432 28
9146 11431 11433 28
9147 11431 11434 28
9148 11431 11435 28
9149 11436 11437 28
9150 11436 11438 28
9151 11436 11439 28
9152 11436 11440 28
9153 11441 11442 28
9154 11441 11443 28
9155 11441 11444 28
9156 11441 11445 28
9157 11446 11447 28
9158 11446 11448 28
9159 11446 11449 28
9160 11446 11450 28
9161 11451 11452 28
9162 11451 11453 28
9163 11451 11454 28
9164 11451 11455 28
9165 11456 11457 28
9166 11456 11458 28
9167 11456 11459 28
9168 11456 11460 28
9169 11461 11462 28
9170 11461 11463 28
9171 11461 11464 28
9172 11461 11465 28
9173 11466 11467 28
9174 11466 11468 28
9175 11466 11469 28
9176 11466 11470 28
9177 11471 11472 28
9178 11471 11473 28
9179 11471 11474 28
9180 11471 11475 28
9181 11476 11477 28
9182 11476 11478 28
9183 11476 11479 28
9184 11476 11480 28
9185 11481 11482 28
9186 11481 11483 28
9187 11481 11484 28
9188 11481 11485 28
9189 11486 11487 28
9190 11486 11488 28
9191 11486 11489 28
9192 11486 11490 28
9193 11491 11492 28
9194 11491 11493 28
9195 11491 11494 28
9196 11491 11495 28
9197 11496 11497 28
9198 11496 11498 28
9199 11496 11499 28
9200 11496 11500 28
9201 11501 11502 28
9202 11501 11503 28
9203 11501 11504 28
9204 11501 11505 28
9205 11506 11507 28
9206 11506 11508 28
9207 11506 11509 28
9208 11506 11510 28
9209 11511 11512 28
9210 11511 11513 28
9211 11511 11514 28
9212 11511 11515 28
9213 11516 11517 28
9214 11516 11518 28
9215 11516 11519 28
9216 11516 11520 28
9217 11521 11522 28
9218 11521 11523 28
9219 11521 11524 28
9220 11521 11525 28
9221 11526 11527 28
9222 11526 11528 28
9223 11526 11529 28
9224 11526 11530 28
9225 11531 11532 28
9226 11531 11533 28
9227 11531 11534 28
9228 11531 11535 28
9229 11536 11537 28
9230 11536 11538 28
9231 11536 11539 28
9232 11536 11540 28
9233 11541 11542 28
9234 11541 11543 28
9235 11541 11544 28
9236 11541 11545 28
9237 11546 11547 28
9238 11546 11548 28
9239 11546 11549 28
9240 11546 11550 28
9241 11551 11552 28
9242 11551 11553 28
9243 11551 11554 28
9244 11551 11555 28
9245 11556 11557 28
9246 11556 11558 28
9247 11556 11559 28
9248 11556 11560 28
9249 11561 11562 28
9250 11561 11563 28
9251 11561 11564 28
9252 11561 11565 28
9253 11566 11567 28
9254 11566 11568 28
9255 11566 11569 28
9256 11566 11570 28
9257 11571 11572 28
9258 11571 11573 28
9259 11571 11574 28
9260 11571 11575 28
9261 11576 11577 28
9262 11576 11578 28
9263 11576 11579 28
9264 11576 11580 28
9265 11581 11582 28
9266 11581 11583 28
9267 11581 11584 28
9268 11581 11585 28
9269 11586 11587 28
9270 11586 11588 28
9271 11586 11589 28
9272 11586 11590 28
9273 11591 11592 28
9274 11591 11593 28
9275 11591 11594 28
9276 11591 11595 28
9277 11596 11597 28
9278 11596 11598 28
9279 11596 11599 28
9280 11596 11600 28
9281 11601 11602 28
9282 11601 11603 28
9283 11601 11604 28
9284 11601 11605 28
9285 11606 11607 28
9286 11606 11608 28
9287 11606 11609 28
9288 11606 11610 28
9289 11611 11612 28
9290 11611 11613 28
9291 11611 11614 28
9292 11611 11615 28
9293 11616 11617 28
9294 11616 11618 28
9295 11616 11619 28
9296 11616 11620 28
9297 11621 11622 28
9298 11621 11623 28
9299 11621 11624 28
9300 11621 11625 28
9301 11626 11627 28
9302 11626 11628 28
9303 11626 11629 28
9304 11626 11630 28
9305 11631 11632 28
9306 11631 11633 28
9307 11631 11634 28
9308 11631 11635 28
9309 11636 11637 28
9310 11636 11638 28
9311 11636 11639 28
9312 11636 11640 28
9313 11641 11642 28
9314 11641 11643 28
9315 11641 11644 28
9316 11641 11645 28
9317 11646 11647 28
9318 11646 11648 28
9319 11646 11649 28
9320 11646 11650 28
9321 11651 11652 28
9322 11651 11653 28
9323 11651 11654 28
9324 11651 11655 28
9325 11656 11657 28
9326 11656 11658 28
9327 11656 11659 28
9328 11656 11660 28
9329 11661 11662 28
9330 11661 11663 28
9331 11661 11664 28
9332 11661 11665 28
9333 11666 11667 28
9334 11666 11668 28
9335 11666 11669 28
9336 11666 11670 28
9337 11671 11672 28
9338 11671 11673 28
9339 11671 11674 28
9340 11671 11675 28
9341 11676 11677 28
9342 11676 11678 28
9343 11676 11679 28
9344 11676 11680 28
9345 11681 11682 28
9346 11681 11683 28
9347 11681 11684 28
9348 11681 11685 28
9349 11686 11687 28
9350 11686 11688 28
9351 11686 11689 28
9352 11686 11690 28
9353 11691 11692 28
9354 11691 11693 28
9355 11691 11694 28
9356 11691 11695 28
9357 11696 11697 28
9358 11696 11698 28
9359 11696 11699 28
9360 11696 11700 28
9361 11701 11702 28
9362 11701 11703 28
9363 11701 11704 28
9364 11701 11705 28
9365 11706 11707 28
9366 11706 11708 28
9367 11706 11709 28
9368 11706 11710 28
9369 11711 11712 28
9370 11711 11713 28
9371 11711 11714 28
9372 11711 11715 28
9373 11716 11717 28
9374 11716 11718 28
9375 11716 11719 28
9376 11716 11720 28
9377 11721 11722 28
9378 11721 11723 28
9379 11721 11724 28
9380 11721 11725 28
9381 11726 11727 28
9382 11726 11728 28
9383 11726 11729 28
9384 11726 11730 28
9385 11731 11732 28
9386 11731 11733 28
9387 11731 11734 28
9388 11731 11735 28
9389 11736 11737 28
9390 11736 11738 28
9391 11736 11739 28
9392 11736 11740 28
9393 11741 11742 28
9394 11741 11743 28
9395 11741 11744 28
9396 11741 11745 28
9397 11746 11747 28
9398 11746 11748 28
9399 11746 11749 28
9400 11746 11750 28
9401 11751 11752 28
9402 11751 11753 28
9403 11751 11754 28
9404 11751 11755 28
9405 11756 11757 28
9406 11756 11758 28
9407 11756 11759 28
9408 11756 11760 28
9409 11761 11762 28
9410 11761 11763 28
9411 11761 11764 28
9412 11761 11765 28
9413 11766 11767 28
9414 11766 11768 28
9415 11766 11769 28
9416 11766 11770 28
9417 11771 11772 28
9418 11771 11773 28
9419 11771 11774 28
9420 11771 11775 28
9421 11776 11777 28
9422 11776 11778 28
9423 11776 11779 28
9424 11776 11780 28
9425 11781 11782 28
9426 11781 11783 28
9427 11781 11784 28
9428 11781 11785 28
9429 11786 11787 28
9430 11786 11788 28
9431 11786 11789 28
9432 11786 11790 28
9433 11791 11792 28
9434 11791 11793 28
9435 11791 11794 28
9436 11791 11795 28
9437 11796 11797 28
9438 11796 11798 28
9439 11796 11799 28
9440 11796 11800 28
9441 11801 11802 28
9442 11801 11803 28
9443 11801 11804 28
9444 11801 11805 28
9445 11806 11807 28
9446 11806 11808 28
9447 11806 11809 28
9448 11806 11810 28
9449 11811 11812 28
9450 11811 11813 28
9451 11811 11814 28
9452 11811 11815 28
9453 11816 11817 28
9454 11816 11818 28
9455 11816 11819 28
9456 11816 11820 28
9457 11821 11822 28
9458 11821 11823 28
9459 11821 11824 28
9460 11821 11825 28
9461 11826 11827 28
9462 11826 11828 28
9463 11826 11829 28
9464 11826 11830 28
9465 11831 11832 28
9466 11831 11833 28
9467 11831 11834 28
9468 11831 11835 28
9469 11836 11837 28
9470 11836 11838 28
9471 11836 11839 28
9472 11836 11840 28
9473 11841 11842 28
9474 11841 11843 28
9475 11841 11844 28
9476 11841 11845 28
9477 11846 11847 28
9478 11846 11848 28
9479 11846 11849 28
9480 11846 11850 28
9481 11851 11852 28
9482 11851 11853 28
9483 11851 11854 28
9484 11851 11855 28
9485 11856 11857 28
9486 11856 11858 28
9487 11856 11859 28
9488 11856 11860 28
9489 11861 11862 28
9490 11861 11863 28
9491 11861 11864 28
9492 11861 11865 28
9493 11866 11867 28
9494 11866 11868 28
9495 11866 11869 28
9496 11866 11870 28
9497 11871 11872 28
9498 11871 11873 28
9499 11871 11874 28
9500 11871 11875 28
9501 11876 11877 28
9502 11876 11878 28
9503 11876 11879 28
9504 11876 11880 28
9505 11881 11882 28
9506 11881 11883 28
9507 11881 11884 28
9508 11881 11885 28
9509 11886 11887 28
9510 11886 11888 28
9511 11886 11889 28
9512 11886 11890 28
9513 11891 11892 28
9514 11891 11893 28
9515 11891 11894 28
9516 11891 11895 28
9517 11896 11897 28
9518 11896 11898 28
9519 11896 11899 28
9520 11896 11900 28
9521 11901 11902 28
9522 11901 11903 28
9523 11901 11904 28
9524 11901 11905 28
9525 11906 11907 28
9526 11906 11908 28
9527 11906 11909 28
9528 11906 11910 28
9529 11911 11912 28
9530 11911 11913 28
9531 11911 11914 28
9532 11911 11915 28
9533 11916 11917 28
9534 11916 11918 28
9535 11916 11919 28
9536 11916 11920 28
9537 11921 11922 28
9538 11921 11923 28
9539 11921 11924 28
9540 11921 11925 28
9541 11926 11927 28
9542 11926 11928 28
9543 11926 11929 28
9544 11926 11930 28
9545 11931 11932 28
9546 11931 11933 28
9547 11931 11934 28
9548 11931 11935 28
9549 11936 11937 28
9550 11936 11938 28
9551 11936 11939 28
9552 11936 11940 28
9553 11941 11942 28
9554 11941 11943 28
9555 11941 11944 28
9556 11941 11945 28
9557 11946 11947 28
9558 11946 11948 28
9559 11946 11949 28
9560 11946 11950 28
9561 11951 11952 28
9562 11951 11953 28
9563 11951 11954 28
9564 11951 11955 28
9565 11956 11957 28
9566 11956 11958 28
9567 11956 11959 28
9568 11956 11960 28
9569 11961 11962 28
9570 11961 11963 28
9571 11961 11964 28
9572 11961 11965 28
9573 11966 11967 28
9574 11966 11968 28
9575 11966 11969 28
9576 11966 11970 28
9577 11971 11972 28
9578 11971 11973 28
9579 11971 11974 28
9580 11971 11975 28
9581 11976 11977 28
9582 11976 11978 28
9583 11976 11979 28
9584 11976 11980 28
9585 11981 11982 28
9586 11981 11983 28
9587 11981 11984 28
9588 11981 11985 28
9589 11986 11987 28
9590 11986 11988 28
9591 11986 11989 28
9592 11986 11990 28
9593 11991 11992 28
9594 11991 11993 28
9595 11991 11994 28
9596 11991 11995 28
9597 11996 11997 28
9598 11996 11998 28
9599 11996 11999 28
9600 11996 12000 28
9601 12001 12002 28
9602 12001 12003 28
9603 12001 12004 28
9604 12001 12005 28
9605 12006 12007 28
9606 12006 12008 28
9607 12006 12009 28
9608 12006 12010 28
9609 12011 12012 28
9610 12011 12013 28
9611 12011 12014 28
9612 12011 12015 28
9613 12016 12017 28
9614 12016 12018 28
9615 12016 12019 28
9616 12016 12020 28
9617 12021 12022 28
9618 12021 12023 28
9619 12021 12024 28
9620 12021 12025 28
9621 12026 12027 28
9622 12026 12028 28
9623 12026 12029 28
9624 12026 12030 28
9625 12031 12032 28
9626 12031 12033 28
9627 12031 12034 28
9628 12031 12035 28
9629 12036 12037 28
9630 12036 12038 28
9631 12036 12039 28
9632 12036 12040 28
9633 12041 12042 28
9634 12041 12043 28
9635 12041 12044 28
9636 12041 12045 28
9637 12046 12047 28
9638 12046 12048 28
9639 12046 12049 28
9640 12046 12050 28
9641 12051 12052 28
9642 12051 12053 28
9643 12051 12054 28
9644 12051 12055 28
9645 12056 12057 28
9646 12056 12058 28
9647 12056 12059 28
9648 12056 12060 28
9649 12061 12062 28
9650 12061 12063 28
9651 12061 12064 28
9652 12061 12065 28
9653 12066 12067 28
9654 12066 12068 28
9655 12066 12069 28
9656 12066 12070 28
9657 12071 12072 28
9658 12071 12073 28
9659 12071 12074 28
9660 12071 12075 28
9661 12076 12077 28
9662 12076 12078 28
9663 12076 12079 28
9664 12076 12080 28
9665 12081 12082 28
9666 12081 12083 28
9667 12081 12084 28
9668 12081 12085 28
9669 12086 12087 28
9670 12086 12088 28
9671 12086 12089 28
9672 12086 12090 28
9673 12091 12092 28
9674 12091 12093 28
9675 12091 12094 28
9676 12091 12095 28
9677 12096 12097 28
9678 12096 12098 28
9679 12096 12099 28
9680 12096 12100 28
9681 12101 12102 28
9682 12101 12103 28
9683 12101 12104 28
9684 12101 12105 28
9685 12106 12107 28
9686 12106 12108 28
9687 12106 12109 28
9688 12106 12110 28
9689 12111 12112 28
9690 12111 12113 28
9691 12111 12114 28
9692 12111 12115 28
9693 12116 12117 28
9694 12116 12118 28
9695 12116 12119 28
9696 12116 12120 28
9697 12121 12122 28
9698 12121 12123 28
9699 12121 12124 28
9700 12121 12125 28
9701 12126 12127 28
9702 12126 12128 28
9703 12126 12129 28
9704 12126 12130 28
9705 12131 12132 28
9706 12131 12133 28
9707 12131 12134 28
9708 12131 12135 28
9709 12136 12137 28
9710 12136 12138 28
9711 12136 12139 28
9712 12136 12140 28
9713 12141 12142 28
9714 12141 12143 28
9715 12141 12144 28
9716 12141 12145 28
9717 12146 12147 28
9718 12146 12148 28
9719 12146 12149 28
9720 12146 12150 28
9721 12151 12152 28
9722 12151 12153 28
9723 12151 12154 28
9724 12151 12155 28
9725 12156 12157 28
9726 12156 12158 28
9727 12156 12159 28
9728 12156 12160 28
9729 12161 12162 28
9730 12161 12163 28
9731 12161 12164 28
9732 12161 12165 28
9733 12166 12167 28
9734 12166 12168 28
9735 12166 12169 28
9736 12166 12170 28
9737 12171 12172 28
9738 12171 12173 28
9739 12171 12174 28
9740 12171 12175 28
9741 12176 12177 28
9742 12176 12178 28
9743 12176 12179 28
9744 12176 12180 28
9745 12181 12182 28
9746 12181 12183 28
9747 12181 12184 28
9748 12181 12185 28
9749 12186 12187 28
9750 12186 12188 28
9751 12186 12189 28
9752 12186 12190 28
9753 12191 12192 28
9754 12191 12193 28
9755 12191 12194 28
9756 12191 12195 28
9757 12196 12197 28
9758 12196 12198 28
9759 12196 12199 28
9760 12196 12200 28
9761 12201 12202 28
9762 12201 12203 28
9763 12201 12204 28
9764 12201 12205 28
9765 12206 12207 28
9766 12206 12208 28
9767 12206 12209 28
9768 12206 12210 28
9769 12211 12212 28
9770 12211 12213 28
9771 12211 12214 28
9772 12211 12215 28
9773 12216 12217 28
9774 12216 12218 28
9775 12216 12219 28
9776 12216 12220 28
9777 12221 12222 28
9778 12221 12223 28
9779 12221 12224 28
9780 12221 12225 28
9781 12226 12227 28
9782 12226 12228 28
9783 12226 12229 28
9784 12226 12230 28
9785 12231 12232 28
9786 12231 12233 28
9787 12231 12234 28
9788 12231 12235 28
9789 12236 12237 28
9790 12236 12238 28
9791 12236 12239 28
9792 12236 12240 28
9793 12241 12242 28
9794 12241 12243 28
9795 12241 12244 28
9796 12241 12245 28
9797 12246 12247 28
9798 12246 12248 28
9799 12246 12249 28
9800 12246 12250 28
9801 12251 12252 28
9802 12251 12253 28
9803 12251 12254 28
9804 12251 12255 28
9805 12256 12257 28
9806 12256 12258 28
9807 12256 12259 28
9808 12256 12260 28
9809 12261 12262 28
9810 12261 12263 28
9811 12261 12264 28
9812 12261 12265 28
9813 12266 12267 28
9814 12266 12268 28
9815 12266 12269 28
9816 12266 12270 28
9817 12271 12272 28
9818 12271 12273 28
9819 12271 12274 28
9820 12271 12275 28
9821 12276 12277 28
9822 12276 12278 28
9823 12276 12279 28
9824 12276 12280 28
9825 12281 12282 28
9826 12281 12283 28
9827 12281 12284 28
9828 12281 12285 28
9829 12286 12287 28
9830 12286 12288 28
9831 12286 12289 28
9832 12286 12290 28
9833 12291 12292 28
9834 12291 12293 28
9835 12291 12294 28
9836 12291 12295 28
9837 12296 12297 28
9838 12296 12298 28
9839 12296 12299 28
9840 12296 12300 28
9841 12301 12302 28
9842 12301 12303 28
9843 12301 12304 28
9844 12301 12305 28
9845 12306 12307 28
9846 12306 12308 28
9847 12306 12309 28
9848 12306 12310 28
9849 12311 12312 28
9850 12311 12313 28
9851 12311 12314 28
9852 12311 12315 28
9853 12316 12317 28
9854 12316 12318 28
9855 12316 12319 28
9856 12316 12320 28
9857 12321 12322 28
9858 12321 12323 28
9859 12321 12324 28
9860 12321 12325 28
9861 12326 12327 28
9862 12326 12328 28
9863 12326 12329 28
9864 12326 12330 28
9865 12331 12332 28
9866 12331 12333 28
9867 12331 12334 28
9868 12331 12335 28
9869 12336 12337 28
9870 12336 12338 28
9871 12336 12339 28
9872 12336 12340 28
9873 12341 12342 28
9874 12341 12343 28
9875 12341 12344 28
9876 12341 12345 28
9877 12346 12347 28
9878 12346 12348 28
9879 12346 12349 28
9880 12346 12350 28
9881 12351 12352 28
9882 12351 12353 28
9883 12351 12354 28
9884 12351 12355 28
9885 12356 12357 28
9886 12356 12358 28
9887 12356 12359 28
9888 12356 12360 28
9889 12361 12362 28
9890 12361 12363 28
9891 12361 12364 28
9892 12361 12365 28
9893 12366 12367 28
9894 12366 12368 28
9895 12366 12369 28
9896 12366 12370 28
9897 12371 12372 28
9898 12371 12373 28
9899 12371 12374 28
9900 12371 12375 28
9901 12376 12377 28
9902 12376 12378 28
9903 12376 12379 28
9904 12376 12380 28
9905 12381 12382 28
9906 12381 12383 28
9907 12381 12384 28
9908 12381 12385 28
9909 12386 12387 28
9910 12386 12388 28
9911 12386 12389 28
9912 12386 12390 28
9913 12391 12392 28
9914 12391 12393 28
9915 12391 12394 28
9916 12391 12395 28
9917 12396 12397 28
9918 12396 12398 28
9919 12396 12399 28
9920 12396 12400 28
9921 12401 12402 28
9922 12401 12403 28
9923 12401 12404 28
9924 12401 12405 28
9925 12406 12407 28
9926 12406 12408 28
9927 12406 12409 28
9928 12406 12410 28
9929 12411 12412 28
9930 12411 12413 28
9931 12411 12414 28
9932 12411 12415 28
9933 12416 12417 28
9934 12416 12418 28
9935 12416 12419 28
9936 12416 12420 28
9937 12421 12422 28
9938 12421 12423 28
9939 12421 12424 28
9940 12421 12425 28
9941 12426 12427 28
9942 12426 12428 28
9943 12426 12429 28
9944 12426 12430 28
9945 12431 12432 28
9946 12431 12433 28
9947 12431 12434 28
9948 12431 12435 28
9949 12436 12437 28
9950 12436 12438 28
9951 12436 12439 28
9952 12436 12440 28
9953 12441 12442 28
9954 12441 12443 28
9955 12441 12444 28
9956 12441 12445 28
9957 12446 12447 28
9958 12446 12448 28
9959 12446 12449 28
9960 12446 12450 28
9961 12451 12452 28
9962 12451 12453 28
9963 12451 12454 28
9964 12451 12455 28
9965 12456 12457 28
9966 12456 12458 28
9967 12456 12459 28
9968 12456 12460 28
9969 12461 12462 28
9970 12461 12463 28
9971 12461 12464 28
9972 12461 12465 28
9973 12466 12467 28
9974 12466 12468 28
9975 12466 12469 28
9976 12466 12470 28
9977 12471 12472 28
9978 12471 12473 28
9979 12471 12474 28
9980 12471 12475 28
9981 12476 12477 28
9982 12476 12478 28
9983 12476 12479 28
9984 12476 12480 28
9985 12481 12482 28
9986 12481 12483 28
9987 12481 12484 28
9988 12481 12485 28
9989 12486 12487 28
9990 12486 12488 28
9991 12486 12489 28
9992 12486 12490 28
9993 12491 12492 28
9994 12491 12493 28
9995 12491 12494 28
9996 12491 12495 28
9997 12496 12497 28
9998 12496 12498 28
9999 12496 12499 28
10000 12496 12500 28
10001 12501 12502 28
10002 12501 12503 28
10003 12501 12504 28
10004 12501 12505 28
10005 12506 12507 28
10006 12506 12508 28
10007 12506 12509 28
10008 12506 12510 28
10009 12511 12512 28
10010 12511 12513 28
10011 12511 12514 28
10012 12511 12515 28
10013 12516 12517 28
10014 12516 12518 28
10015 12516 12519 28
10016 12516 12520 28
10017 12521 12522 28
10018 12521 12523 28
10019 12521 12524 28
10020 12521 12525 28
10021 12526 12527 28
10022 12526 12528 28
10023 12526 12529 28
10024 12526 12530 28
10025 12531 12532 28
10026 12531 12533 28
10027 12531 12534 28
10028 12531 12535 28
10029 12536 12537 28
10030 12536 12538 28
10031 12536 12539 28
10032 12536 12540 28
10033 12541 12542 28
10034 12541 12543 28
10035 12541 12544 28
10036 12541 12545 28
10037 12546 12547 28
10038 12546 12548 28
10039 12546 12549 28
10040 12546 12550 28
10041 12551 12552 28
10042 12551 12553 28
10043 12551 12554 28
10044 12551 12555 28
10045 12556 12557 28
10046 12556 12558 28
10047 12556 12559 28
10048 12556 12560 28
10049 12561 12562 28
10050 12561 12563 28
10051 12561 12564 28
10052 12561 12565 28
10053 12566 12567 28
10054 12566 12568 28
10055 12566 12569 28
10056 12566 12570 28
10057 12571 12572 28
10058 12571 12573 28
10059 12571 12574 28
10060 12571 12575 28
10061 12576 12577 28
10062 12576 12578 28
10063 12576 12579 28
10064 12576 12580 28
10065 12581 12582 28
10066 12581 12583 28
10067 12581 12584 28
10068 12581 12585 28
10069 12586 12587 28
10070 12586 12588 28
10071 12586 12589 28
10072 12586 12590 28
10073 12591 12592 28
10074 12591 12593 28
10075 12591 12594 28
10076 12591 12595 28
10077 12596 12597 28
10078 12596 12598 28
10079 12596 12599 28
10080 12596 12600 28
10081 12601 12602 28
10082 12601 12603 28
10083 12601 12604 28
10084 12601 12605 28
10085 12606 12607 28
10086 12606 12608 28
10087 12606 12609 28
10088 12606 12610 28
10089 12611 12612 28
10090 12611 12613 28
10091 12611 12614 28
10092 12611 12615 28
10093 12616 12617 28
10094 12616 12618 28
10095 12616 12619 28
10096 12616 12620 28
10097 12621 12622 28
10098 12621 12623 28
10099 12621 12624 28
10100 12621 12625 28
10101 12626 12627 28
10102 12626 12628 28
10103 12626 12629 28
10104 12626 12630 28
10105 12631 12632 28
10106 12631 12633 28
10107 12631 12634 28
10108 12631 12635 28
10109 12636 12637 28
10110 12636 12638 28
10111 12636 12639 28
10112 12636 12640 28
10113 12641 12642 28
10114 12641 12643 28
10115 12641 12644 28
10116 12641 12645 28
10117 12646 12647 28
10118 12646 12648 28
10119 12646 12649 28
10120 12646 12650 28
10121 12651 12652 28
10122 12651 12653 28
10123 12651 12654 28
10124 12651 12655 28
10125 12656 12657 28
10126 12656 12658 28
10127 12656 12659 28
10128 12656 12660 28
10129 12661 12662 28
10130 12661 12663 28
10131 12661 12664 28
10132 12661 12665 28
10133 12666 12667 28
10134 12666 12668 28
10135 12666 12669 28
10136 12666 12670 28
10137 12671 12672 28
10138 12671 12673 28
10139 12671 12674 28
10140 12671 12675 28
10141 12676 12677 28
10142 12676 12678 28
10143 12676 12679 28
10144 12676 12680 28
10145 12681 12682 28
10146 12681 12683 28
10147 12681 12684 28
10148 12681 12685 28
10149 12686 12687 28
10150 12686 12688 28
10151 12686 12689 28
10152 12686 12690 28
10153 12691 12692 28
10154 12691 12693 28
10155 12691 12694 28
10156 12691 12695 28
10157 12696 12697 28
10158 12696 12698 28
10159 12696 12699 28
10160 12696 12700 28
10161 12701 12702 28
10162 12701 12703 28
10163 12701 12704 28
10164 12701 12705 28
10165 12706 12707 28
10166 12706 12708 28
10167 12706 12709 28
10168 12706 12710 28
10169 12711 12712 28
10170 12711 12713 28
10171 12711 12714 28
10172 12711 12715 28
10173 12716 12717 28
10174 12716 12718 28
10175 12716 12719 28
10176 12716 12720 28
10177 12721 12722 28
10178 12721 12723 28
10179 12721 12724 28
10180 12721 12725 28
10181 12726 12727 28
10182 12726 12728 28
10183 12726 12729 28
10184 12726 12730 28
10185 12731 12732 28
10186 12731 12733 28
10187 12731 12734 28
10188 12731 12735 28
10189 12736 12737 28
10190 12736 12738 28
10191 12736 12739 28
10192 12736 12740 28
10193 12741 12742 28
10194 12741 12743 28
10195 12741 12744 28
10196 12741 12745 28
10197 12746 12747 28
10198 12746 12748 28
10199 12746 12749 28
10200 12746 12750 28
10201 12751 12752 28
10202 12751 12753 28
10203 12751 12754 28
10204 12751 12755 28
10205 12756 12757 28
10206 12756 12758 28
10207 12756 12759 28
10208 12756 12760 28
10209 12761 12762 28
10210 12761 12763 28
10211 12761 12764 28
10212 12761 12765 28
10213 12766 12767 28
10214 12766 12768 28
10215 12766 12769 28
10216 12766 12770 28
10217 12771 12772 28
10218 12771 12773 28
10219 12771 12774 28
10220 12771 12775 28
10221 12776 12777 28
10222 12776 12778 28
10223 12776 12779 28
10224 12776 12780 28
10225 12781 12782 28
10226 12781 12783 28
10227 12781 12784 28
10228 12781 12785 28
10229 12786 12787 28
10230 12786 12788 28
10231 12786 12789 28
10232 12786 12790 28
10233 12791 12792 28
10234 12791 12793 28
10235 12791 12794 28
10236 12791 12795 28
10237 12796 12797 28
10238 12796 12798 28
10239 12796 12799 28
10240 12796 12800 28
10241 12801 12802 28
10242 12801 12803 28
10243 12801 12804 28
10244 12801 12805 28
10245 12806 12807 28
10246 12806 12808 28
10247 12806 12809 28
10248 12806 12810 28
10249 12811 12812 28
10250 12811 12813 28
10251 12811 12814 28
10252 12811 12815 28
10253 12816 12817 28
10254 12816 12818 28
10255 12816 12819 28
10256 12816 12820 28
10257 12821 12822 28
10258 12821 12823 28
10259 12821 12824 28
10260 12821 12825 28
10261 12826 12827 28
10262 12826 12828 28
10263 12826 12829 28
10264 12826 12830 28
10265 12831 12832 28
10266 12831 12833 28
10267 12831 12834 28
10268 12831 12835 28
10269 12836 12837 28
10270 12836 12838 28
10271 12836 12839 28
10272 12836 12840 28
10273 12841 12842 28
10274 12841 12843 28
10275 12841 12844 28
10276 12841 12845 28
10277 12846 12847 28
10278 12846 12848 28
10279 12846 12849 28
10280 12846 12850 28
10281 12851 12852 28
10282 12851 12853 28
10283 12851 12854 28
10284 12851 12855 28
10285 12856 12857 28
10286 12856 12858 28
10287 12856 12859 28
10288 12856 12860 28
10289 12861 12862 28
10290 12861 12863 28
10291 12861 12864 28
10292 12861 12865 28
10293 12866 12867 28
10294 12866 12868 28
10295 12866 12869 28
10296 12866 12870 28
10297 12871 12872 28
10298 12871 12873 28
10299 12871 12874 28
10300 12871 12875 28
10301 12876 12877 28
10302 12876 12878 28
10303 12876 12879 28
10304 12876 12880 28
10305 12881 12882 28
10306 12881 12883 28
10307 12881 12884 28
10308 12881 12885 28
10309 12886 12887 28
10310 12886 12888 28
10311 12886 12889 28
10312 12886 12890 28
10313 12891 12892 28
10314 12891 12893 28
10315 12891 12894 28
10316 12891 12895 28
10317 12896 12897 28
10318 12896 12898 28
10319 12896 12899 28
10320 12896 12900 28
10321 12901 12902 28
10322 12901 12903 28
10323 12901 12904 28
10324 12901 12905 28
10325 12906 12907 28
10326 12906 12908 28
10327 12906 12909 28
10328 12906 12910 28
10329 12911 12912 28
10330 12911 12913 28
10331 12911 12914 28
10332 12911 12915 28
10333 12916 12917 28
10334 12916 12918 28
10335 12916 12919 28
10336 12916 12920 28
10337 12921 12922 28
10338 12921 12923 28
10339 12921 12924 28
10340 12921 12925 28
10341 12926 12927 28
10342 12926 12928 28
10343 12926 12929 28
10344 12926 12930 28
10345 12931 12932 28
10346 12931 12933 28
10347 12931 12934 28
10348 12931 12935 28
10349 12936 12937 28
10350 12936 12938 28
10351 12936 12939 28
10352 12936 12940 28
10353 12941 12942 28
10354 12941 12943 28
10355 12941 12944 28
10356 12941 12945 28
10357 12946 12947 28
10358 12946 12948 28
10359 12946 12949 28
10360 12946 12950 28
10361 12951 12952 28
10362 12951 12953 28
10363 12951 12954 28
10364 12951 12955 28
10365 12956 12957 28
10366 12956 12958 28
10367 12956 12959 28
10368 12956 12960 28
10369 12961 12962 28
10370 12961 12963 28
10371 12961 12964 28
10372 12961 12965 28
10373 12966 12967 28
10374 12966 12968 28
10375 12966 12969 28
10376 12966 12970 28
10377 12971 12972 28
10378 12971 12973 28
10379 12971 12974 28
10380 12971 12975 28
10381 12976 12977 28
10382 12976 12978 28
10383 12976 12979 28
10384 12976 12980 28
10385 12981 12982 28
10386 12981 12983 28
10387 12981 12984 28
10388 12981 12985 28
10389 12986 12987 28
10390 12986 12988 28
10391 12986 12989 28
10392 12986 12990 28
10393 12991 12992 28
10394 12991 12993 28
10395 12991 12994 28
10396 12991 12995 28
10397 12996 12997 28
10398 12996 12998 28
10399 12996 12999 28
10400 12996 13000 28
10401 13001 13002 28
10402 13001 13003 28
10403 13001 13004 28
10404 13001 13005 28
10405 13006 13007 28
10406 13006 13008 28
10407 13006 13009 28
10408 13006 13010 28
10409 13011 13012 28
10410 13011 13013 28
10411 13011 13014 28
10412 13011 13015 28
10413 13016 13017 28
10414 13016 13018 28
10415 13016 13019 28
10416 13016 13020 28
10417 13021 13022 28
10418 13021 13023 28
10419 13021 13024 28
10420 13021 13025 28
10421 13026 13027 28
10422 13026 13028 28
10423 13026 13029 28
10424 13026 13030 28
10425 13031 13032 28
10426 13031 13033 28
10427 13031 13034 28
10428 13031 13035 28
10429 13036 13037 28
10430 13036 13038 28
10431 13036 13039 28
10432 13036 13040 28
10433 13041 13042 28
10434 13041 13043 28
10435 13041 13044 28
10436 13041 13045 28
10437 13046 13047 28
10438 13046 13048 28
10439 13046 13049 28
10440 13046 13050 28
10441 13051 13052 28
10442 13051 13053 28
10443 13051 13054 28
10444 13051 13055 28
10445 13056 13057 28
10446 13056 13058 28
10447 13056 13059 28
10448 13056 13060 28
10449 13061 13062 28
10450 13061 13063 28
10451 13061 13064 28
10452 13061 13065 28
10453 13066 13067 28
10454 13066 13068 28
10455 13066 13069 28
10456 13066 13070 28
10457 13071 13072 28
10458 13071 13073 28
10459 13071 13074 28
10460 13071 13075 28
10461 13076 13077 28
10462 13076 13078 28
10463 13076 13079 28
10464 13076 13080 28
10465 13081 13082 28
10466 13081 13083 28
10467 13081 13084 28
10468 13081 13085 28
10469 13086 13087 28
10470 13086 13088 28
10471 13086 13089 28
10472 13086 13090 28
10473 13091 13092 28
10474 13091 13093 28
10475 13091 13094 28
10476 13091 13095 28
10477 13096 13097 28
10478 13096 13098 28
10479 13096 13099 28
10480 13096 13100 28
10481 13101 13102 28
10482 13101 13103 28
10483 13101 13104 28
10484 13101 13105 28
10485 13106 13107 28
10486 13106 13108 28
10487 13106 13109 28
10488 13106 13110 28
10489 13111 13112 28
10490 13111 13113 28
10491 13111 13114 28
10492 13111 13115 28
10493 13116 13117 28
10494 13116 13118 28
10495 13116 13119 28
10496 13116 13120 28
10497 13121 13122 28
10498 13121 13123 28
10499 13121 13124 28
10500 13121 13125 28
10501 13126 13127 28
10502 13126 13128 28
10503 13126 13129 28
10504 13126 13130 28
10505 13131 13132 28
10506 13131 13133 28
10507 13131 13134 28
10508 13131 13135 28
10509 13136 13137 28
10510 13136 13138 28
10511 13136 13139 28
10512 13136 13140 28
10513 13141 13142 28
10514 13141 13143 28
10515 13141 13144 28
10516 13141 13145 28
10517 13146 13147 28
10518 13146 13148 28
10519 13146 13149 28
10520 13146 13150 28
10521 13151 13152 28
10522 13151 13153 28
10523 13151 13154 28
10524 13151 13155 28
10525 13156 13157 28
10526 13156 13158 28
10527 13156 13159 28
10528 13156 13160 28
10529 13161 13162 28
10530 13161 13163 28
10531 13161 13164 28
10532 13161 13165 28
10533 13166 13167 28
10534 13166 13168 28
10535 13166 13169 28
10536 13166 13170 28
10537 13171 13172 28
10538 13171 13173 28
10539 13171 13174 28
10540 13171 13175 28
10541 13176 13177 28
10542 13176 13178 28
10543 13176 13179 28
10544 13176 13180 28
10545 13181 13182 28
10546 13181 13183 28
10547 13181 13184 28
10548 13181 13185 28
10549 13186 13187 28
10550 13186 13188 28
10551 13186 13189 28
10552 13186 13190 28
10553 13191 13192 28
10554 13191 13193 28
10555 13191 13194 28
10556 13191 13195 28
10557 13196 13197 28
10558 13196 13198 28
10559 13196 13199 28
10560 13196 13200 28
10561 13201 13202 28
10562 13201 13203 28
10563 13201 13204 28
10564 13201 13205 28
10565 13206 13207 28
10566 13206 13208 28
10567 13206 13209 28
10568 13206 13210 28
10569 13211 13212 28
10570 13211 13213 28
10571 13211 13214 28
10572 13211 13215 28
10573 13216 13217 28
10574 13216 13218 28
10575 13216 13219 28
10576 13216 13220 28
10577 13221 13222 28
10578 13221 13223 28
10579 13221 13224 28
10580 13221 13225 28
10581 13226 13227 28
10582 13226 13228 28
10583 13226 13229 28
10584 13226 13230 28
10585 13231 13232 28
10586 13231 13233 28
10587 13231 13234 28
10588 13231 13235 28
10589 13236 13237 28
10590 13236 13238 28
10591 13236 13239 28
10592 13236 13240 28
10593 13241 13242 28
10594 13241 13243 28
10595 13241 13244 28
10596 13241 13245 28
10597 13246 13247 28
10598 13246 13248 28
10599 13246 13249 28
10600 13246 13250 28
10601 13251 13252 28
10602 13251 13253 28
10603 13251 13254 28
10604 13251 13255 28
10605 13256 13257 28
10606 13256 13258 28
10607 13256 13259 28
10608 13256 13260 28
10609 13261 13262 28
10610 13261 13263 28
10611 13261 13264 28
10612 13261 13265 28
10613 13266 13267 28
10614 13266 13268 28
10615 13266 13269 28
10616 13266 13270 28
10617 13271 13272 28
10618 13271 13273 28
10619 13271 13274 28
10620 13271 13275 28
10621 13276 13277 28
10622 13276 13278 28
10623 13276 13279 28
10624 13276 13280 28
10625 13281 13282 28
10626 13281 13283 28
10627 13281 13284 28
10628 13281 13285 28
10629 13286 13287 28
10630 13286 13288 28
10631 13286 13289 28
10632 13286 13290 28
10633 13291 13292 28
10634 13291 13293 28
10635 13291 13294 28
10636 13291 13295 28
10637 13296 13297 28
10638 13296 13298 28
10639 13296 13299 28
10640 13296 13300 28
10641 13301 13302 28
10642 13301 13303 28
10643 13301 13304 28
10644 13301 13305 28
10645 13306 13307 28
10646 13306 13308 28
10647 13306 13309 28
10648 13306 13310 28
10649 13311 13312 28
10650 13311 13313 28
10651 13311 13314 28
10652 13311 13315 28
10653 13316 13317 28
10654 13316 13318 28
10655 13316 13319 28
10656 13316 13320 28
10657 13321 13322 28
10658 13321 13323 28
10659 13321 13324 28
10660 13321 13325 28
10661 13326 13327 28
10662 13326 13328 28
10663 13326 13329 28
10664 13326 13330 28
10665 13331 13332 28
10666 13331 13333 28
10667 13331 13334 28
10668 13331 13335 28
10669 13336 13337 28
10670 13336 13338 28
10671 13336 13339 28
10672 13336 13340 28
10673 13341 13342 28
10674 13341 13343 28
10675 13341 13344 28
10676 13341 13345 28
10677 13346 13347 28
10678 13346 13348 28
10679 13346 13349 28
10680 13346 13350 28
10681 13351 13352 28
10682 13351 13353 28
10683 13351 13354 28
10684 13351 13355 28
10685 13356 13357 28
10686 13356 13358 28
10687 13356 13359 28
10688 13356 13360 28
10689 13361 13362 28
10690 13361 13363 28
10691 13361 13364 28
10692 13361 13365 28
10693 13366 13367 28
10694 13366 13368 28
10695 13366 13369 28
10696 13366 13370 28
10697 13371 13372 28
10698 13371 13373 28
10699 13371 13374 28
10700 13371 13375 28
10701 13376 13377 28
10702 13376 13378 28
10703 13376 13379 28
10704 13376 13380 28
10705 13381 13382 28
10706 13381 13383 28
10707 13381 13384 28
10708 13381 13385 28
10709 13386 13387 28
10710 13386 13388 28
10711 13386 13389 28
10712 13386 13390 28
10713 13391 13392 28
10714 13391 13393 28
10715 13391 13394 28
10716 13391 13395 28
10717 13396 13397 28
10718 13396 13398 28
10719 13396 13399 28
10720 13396 13400 28
10721 13401 13402 28
10722 13401 13403 28
10723 13401 13404 28
10724 13401 13405 28
10725 13406 13407 28
10726 13406 13408 28
10727 13406 13409 28
10728 13406 13410 28
10729 13411 13412 28
10730 13411 13413 28
10731 13411 13414 28
10732 13411 13415 28
10733 13416 13417 28
10734 13416 13418 28
10735 13416 13419 28
10736 13416 13420 28
10737 13421 13422 28
10738 13421 13423 28
10739 13421 13424 28
10740 13421 13425 28
10741 13426 13427 28
10742 13426 13428 28
10743 13426 13429 28
10744 13426 13430 28
10745 13431 13432 28
10746 13431 13433 28
10747 13431 13434 28
10748 13431 13435 28
10749 13436 13437 28
10750 13436 13438 28
10751 13436 13439 28
10752 13436 13440 28
10753 13441 13442 28
10754 13441 13443 28
10755 13441 13444 28
10756 13441 13445 28
10757 13446 13447 28
10758 13446 13448 28
10759 13446 13449 28
10760 13446 13450 28
10761 13451 13452 28
10762 13451 13453 28
10763 13451 13454 28
10764 13451 13455 28
10765 13456 13457 28
10766 13456 13458 28
10767 13456 13459 28
10768 13456 13460 28
10769 13461 13462 28
10770 13461 13463 28
10771 13461 13464 28
10772 13461 13465 28
10773 13466 13467 28
10774 13466 13468 28
10775 13466 13469 28
10776 13466 13470 28
10777 13471 13472 28
10778 13471 13473 28
10779 13471 13474 28
10780 13471 13475 28
10781 13476 13477 28
10782 13476 13478 28
10783 13476 13479 28
10784 13476 13480 28
10785 13481 13482 28
10786 13481 13483 28
10787 13481 13484 28
10788 13481 13485 28
10789 13486 13487 28
10790 13486 13488 28
10791 13486 13489 28
10792 13486 13490 28
10793 13491 13492 28
10794 13491 13493 28
10795 13491 13494 28
10796 13491 13495 28
10797 13496 13497 28
10798 13496 13498 28
10799 13496 13499 28
10800 13496 13500 28
10801 13501 13502 28
10802 13501 13503 28
10803 13501 13504 28
10804 13501 13505 28
10805 13506 13507 28
10806 13506 13508 28
10807 13506 13509 28
10808 13506 13510 28
10809 13511 13512 28
10810 13511 13513 28
10811 13511 13514 28
10812 13511 13515 28
10813 13516 13517 28
10814 13516 13518 28
10815 13516 13519 28
10816 13516 13520 28
10817 13521 13522 28
10818 13521 13523 28
10819 13521 13524 28
10820 13521 13525 28
10821 13526 13527 28
10822 13526 13528 28
10823 13526 13529 28
10824 13526 13530 28
10825 13531 13532 28
10826 13531 13533 28
10827 13531 13534 28
10828 13531 13535 28
10829 13536 13537 28
10830 13536 13538 28
10831 13536 13539 28
10832 13536 13540 28
10833 13541 13542 28
10834 13541 13543 28
10835 13541 13544 28
10836 13541 13545 28
10837 13546 13547 28
10838 13546 13548 28
10839 13546 13549 28
10840 13546 13550 28
10841 13551 13552 28
10842 13551 13553 28
10843 13551 13554 28
10844 13551 13555 28
10845 13556 13557 28
10846 13556 13558 28
10847 13556 13559 28
10848 13556 13560 28
10849 13561 13562 28
10850 13561 13563 28
10851 13561 13564 28
10852 13561 13565 28
10853 13566 13567 28
10854 13566 13568 28
10855 13566 13569 28
10856 13566 13570 28
10857 13571 13572 28
10858 13571 13573 28
10859 13571 13574 28
10860 13571 13575 28
10861 13576 13577 28
10862 13576 13578 28
10863 13576 13579 28
10864 13576 13580 28
10865 13581 13582 28
10866 13581 13583 28
10867 13581 13584 28
10868 13581 13585 28
10869 13586 13587 28
10870 13586 13588 28
10871 13586 13589 28
10872 13586 13590 28
10873 13591 13592 28
10874 13591 13593 28
10875 13591 13594 28
10876 13591 13595 28
10877 13596 13597 28
10878 13596 13598 28
10879 13596 13599 28
10880 13596 13600 28
10881 13601 13602 28
10882 13601 13603 28
10883 13601 13604 28
10884 13601 13605 28
10885 13606 13607 28
10886 13606 13608 28
10887 13606 13609 28
10888 13606 13610 28
10889 13611 13612 28
10890 13611 13613 28
10891 13611 13614 28
10892 13611 13615 28
10893 13616 13617 28
10894 13616 13618 28
10895 13616 13619 28
10896 13616 13620 28
10897 13621 13622 28
10898 13621 13623 28
10899 13621 13624 28
10900 13621 13625 28
10901 13626 13627 28
10902 13626 13628 28
10903 13626 13629 28
10904 13626 13630 28
10905 13631 13632 28
10906 13631 13633 28
10907 13631 13634 28
10908 13631 13635 28
10909 13636 13637 28
10910 13636 13638 28
10911 13636 13639 28
10912 13636 13640 28
10913 13641 13642 28
10914 13641 13643 28
10915 13641 13644 28
10916 13641 13645 28
10917 13646 13647 28
10918 13646 13648 28
10919 13646 13649 28
10920 13646 13650 28
10921 13651 13652 28
10922 13651 13653 28
10923 13651 13654 28
10924 13651 13655 28
10925 13656 13657 28
10926 13656 13658 28
10927 13656 13659 28
10928 13656 13660 28
10929 13661 13662 28
10930 13661 13663 28
10931 13661 13664 28
10932 13661 13665 28
10933 13666 13667 28
10934 13666 13668 28
10935 13666 13669 28
10936 13666 13670 28
10937 13671 13672 28
10938 13671 13673 28
10939 13671 13674 28
10940 13671 13675 28
10941 13676 13677 28
10942 13676 13678 28
10943 13676 13679 28
10944 13676 13680 28
10945 13681 13682 28
10946 13681 13683 28
10947 13681 13684 28
10948 13681 13685 28
10949 13686 13687 28
10950 13686 13688 28
10951 13686 13689 28
10952 13686 13690 28
10953 13691 13692 28
10954 13691 13693 28
10955 13691 13694 28
10956 13691 13695 28
10957 13696 13697 28
10958 13696 13698 28
10959 13696 13699 28
10960 13696 13700 28
10961 13701 13702 28
10962 13701 13703 28
10963 13701 13704 28
10964 13701 13705 28
10965 13706 13707 28
10966 13706 13708 28
10967 13706 13709 28
10968 13706 13710 28
10969 13711 13712 28
10970 13711 13713 28
10971 13711 13714 28
10972 13711 13715 28
10973 13716 13717 28
10974 13716 13718 28
10975 13716 13719 28
10976 13716 13720 28
10977 13721 13722 28
10978 13721 13723 28
10979 13721 13724 28
10980 13721 13725 28
10981 13726 13727 28
10982 13726 13728 28
10983 13726 13729 28
10984 13726 13730 28
10985 13731 13732 28
10986 13731 13733 28
10987 13731 13734 28
10988 13731 13735 28
10989 13736 13737 28
10990 13736 13738 28
10991 13736 13739 28
10992 13736 13740 28
10993 13741 13742 28
10994 13741 13743 28
10995 13741 13744 28
10996 13741 13745 28
10997 13746 13747 28
10998 13746 13748 28
10999 13746 13749 28
11000 13746 13750 28
11001 13751 13752 28
11002 13751 13753 28
11003 13751 13754 28
11004 13751 13755 28
11005 13756 13757 28
11006 13756 13758 28
11007 13756 13759 28
11008 13756 13760 28
11009 13761 13762 28
11010 13761 13763 28
11011 13761 13764 28
11012 13761 13765 28
11013 13766 13767 28
11014 13766 13768 28
11015 13766 13769 28
11016 13766 13770 28
11017 13771 13772 28
11018 13771 13773 28
11019 13771 13774 28
11020 13771 13775 28
11021 13776 13777 28
11022 13776 13778 28
11023 13776 13779 28
11024 13776 13780 28
11025 13781 13782 28
11026 13781 13783 28
11027 13781 13784 28
11028 13781 13785 28
11029 13786 13787 28
11030 13786 13788 28
11031 13786 13789 28
11032 13786 13790 28
11033 13791 13792 28
11034 13791 13793 28
11035 13791 13794 28
11036 13791 13795 28
11037 13796 13797 28
11038 13796 13798 28
11039 13796 13799 28
11040 13796 13800 28
11041 13801 13802 28
11042 13801 13803 28
11043 13801 13804 28
11044 13801 13805 28
11045 13806 13807 28
11046 13806 13808 28
11047 13806 13809 28
11048 13806 13810 28
11049 13811 13812 28
11050 13811 13813 28
11051 13811 13814 28
11052 13811 13815 28
11053 13816 13817 28
11054 13816 13818 28
11055 13816 13819 28
11056 13816 13820 28
11057 13821 13822 28
11058 13821 13823 28
11059 13821 13824 28
11060 13821 13825 28
11061 13826 13827 28
11062 13826 13828 28
11063 13826 13829 28
11064 13826 13830 28
11065 13831 13832 28
11066 13831 13833 28
11067 13831 13834 28
11068 13831 13835 28
11069 13836 13837 28
11070 13836 13838 28
11071 13836 13839 28
11072 13836 13840 28
11073 13841 13842 28
11074 13841 13843 28
11075 13841 13844 28
11076 13841 13845 28
11077 13846 13847 28
11078 13846 13848 28
11079 13846 13849 28
11080 13846 13850 28
11081 13851 13852 28
11082 13851 13853 28
11083 13851 13854 28
11084 13851 13855 28
11085 13856 13857 28
11086 13856 13858 28
11087 13856 13859 28
11088 13856 13860 28
11089 13861 13862 28
11090 13861 13863 28
11091 13861 13864 28
11092 13861 13865 28
11093 13866 13867 28
11094 13866 13868 28
11095 13866 13869 28
11096 13866 13870 28
11097 13871 13872 28
11098 13871 13873 28
11099 13871 13874 28
11100 13871 13875 28
11101 13876 13877 28
11102 13876 13878 28
11103 13876 13879 28
11104 13876 13880 28
11105 13881 13882 28
11106 13881 13883 28
11107 13881 13884 28
11108 13881 13885 28
11109 13886 13887 28
11110 13886 13888 28
11111 13886 13889 28
11112 13886 13890 28
11113 13891 13892 28
11114 13891 13893 28
11115 13891 13894 28
11116 13891 13895 28
11117 13896 13897 28
11118 13896 13898 28
11119 13896 13899 28
11120 13896 13900 28
11121 13901 13902 28
11122 13901 13903 28
11123 13901 13904 28
11124 13901 13905 28
11125 13906 13907 28
11126 13906 13908 28
11127 13906 13909 28
11128 13906 13910 28
11129 13911 13912 28
11130 13911 13913 28
11131 13911 13914 28
11132 13911 13915 28
11133 13916 13917 28
11134 13916 13918 28
11135 13916 13919 28
11136 13916 13920 28
11137 13921 13922 28
11138 13921 13923 28
11139 13921 13924 28
11140 13921 13925 28
11141 13926 13927 28
11142 13926 13928 28
11143 13926 13929 28
11144 13926 13930 28
11145 13931 13932 28
11146 13931 13933 28
11147 13931 13934 28
11148 13931 13935 28
11149 13936 13937 28
11150 13936 13938 28
11151 13936 13939 28
11152 13936 13940 28
11153 13941 13942 28
11154 13941 13943 28
11155 13941 13944 28
11156 13941 13945 28
11157 13946 13947 28
11158 13946 13948 28
11159 13946 13949 28
11160 13946 13950 28
11161 13951 13952 28
11162 13951 13953 28
11163 13951 13954 28
11164 13951 13955 28
11165 13956 13957 28
11166 13956 13958 28
11167 13956 13959 28
11168 13956 13960 28
11169 13961 13962 28
11170 13961 13963 28
11171 13961 13964 28
11172 13961 13965 28
11173 13966 13967 28
11174 13966 13968 28
11175 13966 13969 28
11176 13966 13970 28
11177 13971 13972 28
11178 13971 13973 28
11179 13971 13974 28
11180 13971 13975 28
11181 13976 13977 28
11182 13976 13978 28
11183 13976 13979 28
11184 13976 13980 28
11185 13981 13982 28
11186 13981 13983 28
11187 13981 13984 28
11188 13981 13985 28
11189 13986 13987 28
11190 13986 13988 28
11191 13986 13989 28
11192 13986 13990 28
11193 13991 13992 28
11194 13991 13993 28
11195 13991 13994 28
11196 13991 13995 28
11197 13996 13997 28
11198 13996 13998 28
11199 13996 13999 28
11200 13996 14000 28
11201 14001 14002 28
11202 14001 14003 28
11203 14001 14004 28
11204 14001 14005 28
11205 14006 14007 28
11206 14006 14008 28
11207 14006 14009 28
11208 14006 14010 28
11209 14011 14012 28
11210 14011 14013 28
11211 14011 14014 28
11212 14011 14015 28
11213 14016 14017 28
11214 14016 14018 28
11215 14016 14019 28
11216 14016 14020 28
11217 14021 14022 28
11218 14021 14023 28
11219 14021 14024 28
11220 14021 14025 28
11221 14026 14027 28
11222 14026 14028 28
11223 14026 14029 28
11224 14026 14030 28
11225 14031 14032 28
11226 14031 14033 28
11227 14031 14034 28
11228 14031 14035 28
11229 14036 14037 28
11230 14036 14038 28
11231 14036 14039 28
11232 14036 14040 28
11233 14041 14042 28
11234 14041 14043 28
11235 14041 14044 28
11236 14041 14045 28
11237 14046 14047 28
11238 14046 14048 28
11239 14046 14049 28
11240 14046 14050 28
11241 14051 14052 28
11242 14051 14053 28
11243 14051 14054 28
11244 14051 14055 28
11245 14056 14057 28
11246 14056 14058 28
11247 14056 14059 28
11248 14056 14060 28
11249 14061 14062 28
11250 14061 14063 28
11251 14061 14064 28
11252 14061 14065 28
11253 14066 14067 28
11254 14066 14068 28
11255 14066 14069 28
11256 14066 14070 28
11257 14071 14072 28
11258 14071 14073 28
11259 14071 14074 28
11260 14071 14075 28
11261 14076 14077 28
11262 14076 14078 28
11263 14076 14079 28
11264 14076 14080 28
11265 14081 14082 28
11266 14081 14083 28
11267 14081 14084 28
11268 14081 14085 28
11269 14086 14087 28
11270 14086 14088 28
11271 14086 14089 28
11272 14086 14090 28
11273 14091 14092 28
11274 14091 14093 28
11275 14091 14094 28
11276 14091 14095 28
11277 14096 14097 28
11278 14096 14098 28
11279 14096 14099 28
11280 14096 14100 28
11281 14101 14102 28
11282 14101 14103 28
11283 14101 14104 28
11284 14101 14105 28
11285 14106 14107 28
11286 14106 14108 28
11287 14106 14109 28
11288 14106 14110 28
11289 14111 14112 28
11290 14111 14113 28
11291 14111 14114 28
11292 14111 14115 28
11293 14116 14117 28
11294 14116 14118 28
11295 14116 14119 28
11296 14116 14120 28
11297 14121 14122 28
11298 14121 14123 28
11299 14121 14124 28
11300 14121 14125 28
11301 14126 14127 28
11302 14126 14128 28
11303 14126 14129 28
11304 14126 14130 28
11305 14131 14132 28
11306 14131 14133 28
11307 14131 14134 28
11308 14131 14135 28
11309 14136 14137 28
11310 14136 14138 28
11311 14136 14139 28
11312 14136 14140 28
11313 14141 14142 28
11314 14141 14143 28
11315 14141 14144 28
11316 14141 14145 28
11317 14146 14147 28
11318 14146 14148 28
11319 14146 14149 28
11320 14146 14150 28
11321 14151 14152 28
11322 14151 14153 28
11323 14151 14154 28
11324 14151 14155 28
11325 14156 14157 28
11326 14156 14158 28
11327 14156 14159 28
11328 14156 14160 28
11329 14161 14162 28
11330 14161 14163 28
11331 14161 14164 28
11332 14161 14165 28
11333 14166 14167 28
11334 14166 14168 28
11335 14166 14169 28
11336 14166 14170 28
11337 14171 14172 28
11338 14171 14173 28
11339 14171 14174 28
11340 14171 14175 28
11341 14176 14177 28
11342 14176 14178 28
11343 14176 14179 28
11344 14176 14180 28
11345 14181 14182 28
11346 14181 14183 28
11347 14181 14184 28
11348 14181 14185 28
11349 14186 14187 28
11350 14186 14188 28
11351 14186 14189 28
11352 14186 14190 28
11353 14191 14192 28
11354 14191 14193 28
11355 14191 14194 28
11356 14191 14195 28
11357 14196 14197 28
11358 14196 14198 28
11359 14196 14199 28
11360 14196 14200 28
11361 14201 14202 28
11362 14201 14203 28
11363 14201 14204 28
11364 14201 14205 28
11365 14206 14207 28
11366 14206 14208 28
11367 14206 14209 28
11368 14206 14210 28
11369 14211 14212 28
11370 14211 14213 28
11371 14211 14214 28
11372 14211 14215 28
11373 14216 14217 28
11374 14216 14218 28
11375 14216 14219 28
11376 14216 14220 28
11377 14221 14222 28
11378 14221 14223 28
11379 14221 14224 28
11380 14221 14225 28
11381 14226 14227 28
11382 14226 14228 28
11383 14226 14229 28
11384 14226 14230 28
11385 14231 14232 28
11386 14231 14233 28
11387 14231 14234 28
11388 14231 14235 28
11389 14236 14237 28
11390 14236 14238 28
11391 14236 14239 28
11392 14236 14240 28
11393 14241 14242 28
11394 14241 14243 28
11395 14241 14244 28
11396 14241 14245 28
11397 14246 14247 28
11398 14246 14248 28
11399 14246 14249 28
11400 14246 14250 28
11401 14251 14252 28
11402 14251 14253 28
11403 14251 14254 28
11404 14251 14255 28
11405 14256 14257 28
11406 14256 14258 28
11407 14256 14259 28
11408 14256 14260 28
11409 14261 14262 28
11410 14261 14263 28
11411 14261 14264 28
11412 14261 14265 28
11413 14266 14267 28
11414 14266 14268 28
11415 14266 14269 28
11416 14266 14270 28
11417 14271 14272 28
11418 14271 14273 28
11419 14271 14274 28
11420 14271 14275 28
11421 14276 14277 28
11422 14276 14278 28
11423 14276 14279 28
11424 14276 14280 28
11425 14281 14282 28
11426 14281 14283 28
11427 14281 14284 28
11428 14281 14285 28
11429 14286 14287 28
11430 14286 14288 28
11431 14286 14289 28
11432 14286 14290 28
11433 14291 14292 28
11434 14291 14293 28
11435 14291 14294 28
11436 14291 14295 28
11437 14296 14297 28
11438 14296 14298 28
11439 14296 14299 28
11440 14296 14300 28
11441 14301 14302 28
11442 14301 14303 28
11443 14301 14304 28
11444 14301 14305 28
11445 14306 14307 28
11446 14306 14308 28
11447 14306 14309 28
11448 14306 14310 28
11449 14311 14312 28
11450 14311 14313 28
11451 14311 14314 28
11452 14311 14315 28
11453 14316 14317 28
11454 14316 14318 28
11455 14316 14319 28
11456 14316 14320 28
11457 14321 14322 28
11458 14321 14323 28
11459 14321 14324 28
11460 14321 14325 28
11461 14326 14327 28
11462 14326 14328 28
11463 14326 14329 28
11464 14326 14330 28
11465 14331 14332 28
11466 14331 14333 28
11467 14331 14334 28
11468 14331 14335 28
11469 14336 14337 28
11470 14336 14338 28
11471 14336 14339 28
11472 14336 14340 28
11473 14341 14342 28
11474 14341 14343 28
11475 14341 14344 28
11476 14341 14345 28
11477 14346 14347 28
11478 14346 14348 28
11479 14346 14349 28
11480 14346 14350 28
11481 14351 14352 28
11482 14351 14353 28
11483 14351 14354 28
11484 14351 14355 28
11485 14356 14357 28
11486 14356 14358 28
11487 14356 14359 28
11488 14356 14360 28
11489 14361 14362 28
11490 14361 14363 28
11491 14361 14364 28
11492 14361 14365 28
11493 14366 14367 28
11494 14366 14368 28
11495 14366 14369 28
11496 14366 14370 28
11497 14371 14372 28
11498 14371 14373 28
11499 14371 14374 28
11500 14371 14375 28
11501 14376 14377 28
11502 14376 14378 28
11503 14376 14379 28
11504 14376 14380 28
11505 14381 14382 28
11506 14381 14383 28
11507 14381 14384 28
11508 14381 14385 28
11509 14386 14387 28
11510 14386 14388 28
11511 14386 14389 28
11512 14386 14390 28
11513 14391 14392 28
11514 14391 14393 28
11515 14391 14394 28
11516 14391 14395 28
11517 14396 14397 28
11518 14396 14398 28
11519 14396 14399 28
11520 14396 14400 28
11521 14401 14402 28
11522 14401 14403 28
11523 14401 14404 28
11524 14401 14405 28
11525 14406 14407 28
11526 14406 14408 28
11527 14406 14409 28
11528 14406 14410 28
11529 14411 14412 28
11530 14411 14413 28
11531 14411 14414 28
11532 14411 14415 28
11533 14416 14417 28
11534 14416 14418 28
11535 14416 14419 28
11536 14416 14420 28
11537 14421 14422 28
11538 14421 14423 28
11539 14421 14424 28
11540 14421 14425 28
11541 14426 14427 28
11542 14426 14428 28
11543 14426 14429 28
11544 14426 14430 28
11545 14431 14432 28
11546 14431 14433 28
11547 14431 14434 28
11548 14431 14435 28
11549 14436 14437 28
11550 14436 14438 28
11551 14436 14439 28
11552 14436 14440 28
11553 14441 14442 28
11554 14441 14443 28
11555 14441 14444 28
11556 14441 14445 28
11557 14446 14447 28
11558 14446 14448 28
11559 14446 14449 28
11560 14446 14450 28
11561 14451 14452 28
11562 14451 14453 28
11563 14451 14454 28
11564 14451 14455 28
11565 14456 14457 28
11566 14456 14458 28
11567 14456 14459 28
11568 14456 14460 28
11569 14461 14462 28
11570 14461 14463 28
11571 14461 14464 28
11572 14461 14465 28
11573 14466 14467 28
11574 14466 14468 28
11575 14466 14469 28
11576 14466 14470 28
11577 14471 14472 28
11578 14471 14473 28
11579 14471 14474 28
11580 14471 14475 28
11581 14476 14477 28
11582 14476 14478 28
11583 14476 14479 28
11584 14476 14480 28
11585 14481 14482 28
11586 14481 14483 28
11587 14481 14484 28
11588 14481 14485 28
11589 14486 14487 28
11590 14486 14488 28
11591 14486 14489 28
11592 14486 14490 28
11593 14491 14492 28
11594 14491 14493 28
11595 14491 14494 28
11596 14491 14495 28
11597 14496 14497 28
11598 14496 14498 28
11599 14496 14499 28
11600 14496 14500 28
11601 14501 14502 28
11602 14501 14503 28
11603 14501 14504 28
11604 14501 14505 28
11605 14506 14507 28
11606 14506 14508 28
11607 14506 14509 28
11608 14506 14510 28
11609 14511 14512 28
11610 14511 14513 28
11611 14511 14514 28
11612 14511 14515 28
11613 14516 14517 28
11614 14516 14518 28
11615 14516 14519 28
11616 14516 14520 28
11617 14521 14522 28
11618 14521 14523 28
11619 14521 14524 28
11620 14521 14525 28
11621 14526 14527 28
11622 14526 14528 28
11623 14526 14529 28
11624 14526 14530 28
11625 14531 14532 28
11626 14531 14533 28
11627 14531 14534 28
11628 14531 14535 28
11629 14536 14537 28
11630 14536 14538 28
11631 14536 14539 28
11632 14536 14540 28
11633 14541 14542 28
11634 14541 14543 28
11635 14541 14544 28
11636 14541 14545 28
11637 14546 14547 28
11638 14546 14548 28
11639 14546 14549 28
11640 14546 14550 28
11641 14551 14552 28
11642 14551 14553 28
11643 14551 14554 28
11644 14551 14555 28
11645 14556 14557 28
11646 14556 14558 28
11647 14556 14559 28
11648 14556 14560 28
11649 14561 14562 28
11650 14561 14563 28
11651 14561 14564 28
11652 14561 14565 28
11653 14566 14567 28
11654 14566 14568 28
11655 14566 14569 28
11656 14566 14570 28
11657 14571 14572 28
11658 14571 14573 28
11659 14571 14574 28
11660 14571 14575 28
11661 14576 14577 28
11662 14576 14578 28
11663 14576 14579 28
11664 14576 14580 28
11665 14581 14582 28
11666 14581 14583 28
11667 14581 14584 28
11668 14581 14585 28
11669 14586 14587 28
11670 14586 14588 28
11671 14586 14589 28
11672 14586 14590 28
11673 14591 14592 28
11674 14591 14593 28
11675 14591 14594 28
11676 14591 14595 28
11677 14596 14597 28
11678 14596 14598 28
11679 14596 14599 28
11680 14596 14600 28
11681 14601 14602 28
11682 14601 14603 28
11683 14601 14604 28
11684 14601 14605 28
11685 14606 14607 28
11686 14606 14608 28
11687 14606 14609 28
11688 14606 14610 28
11689 14611 14612 28
11690 14611 14613 28
11691 14611 14614 28
11692 14611 14615 28
11693 14616 14617 28
11694 14616 14618 28
11695 14616 14619 28
11696 14616 14620 28
11697 14621 14622 28
11698 14621 14623 28
11699 14621 14624 28
11700 14621 14625 28
11701 14626 14627 28
11702 14626 14628 28
11703 14626 14629 28
11704 14626 14630 28
11705 14631 14632 28
11706 14631 14633 28
11707 14631 14634 28
11708 14631 14635 28
11709 14636 14637 28
11710 14636 14638 28
11711 14636 14639 28
11712 14636 14640 28
11713 14641 14642 28
11714 14641 14643 28
11715 14641 14644 28
11716 14641 14645 28
11717 14646 14647 28
11718 14646 14648 28
11719 14646 14649 28
11720 14646 14650 28
11721 14651 14652 28
11722 14651 14653 28
11723 14651 14654 28
11724 14651 14655 28
11725 14656 14657 28
11726 14656 14658 28
11727 14656 14659 28
11728 14656 14660 28
11729 14661 14662 28
11730 14661 14663 28
11731 14661 14664 28
11732 14661 14665 28
11733 14666 14667 28
11734 14666 14668 28
11735 14666 14669 28
11736 14666 14670 28
11737 14671 14672 28
11738 14671 14673 28
11739 14671 14674 28
11740 14671 14675 28
11741 14676 14677 28
11742 14676 14678 28
11743 14676 14679 28
11744 14676 14680 28
11745 14681 14682 28
11746 14681 14683 28
11747 14681 14684 28
11748 14681 14685 28
11749 14686 14687 28
11750 14686 14688 28
11751 14686 14689 28
11752 14686 14690 28
11753 14691 14692 28
11754 14691 14693 28
11755 14691 14694 28
11756 14691 14695 28
11757 14696 14697 28
11758 14696 14698 28
11759 14696 14699 28
11760 14696 14700 28
11761 14701 14702 28
11762 14701 14703 28
11763 14701 14704 28
11764 14701 14705 28
11765 14706 14707 28
11766 14706 14708 28
11767 14706 14709 28
11768 14706 14710 28
11769 14711 14712 28
11770 14711 14713 28
11771 14711 14714 28
11772 14711 14715 28
11773 14716 14717 28
11774 14716 14718 28
11775 14716 14719 28
11776 14716 14720 28
11777 14721 14722 28
11778 14721 14723 28
11779 14721 14724 28
11780 14721 14725 28
11781 14726 14727 28
11782 14726 14728 28
11783 14726 14729 28
11784 14726 14730 28
11785 14731 14732 28
11786 14731 14733 28
11787 14731 14734 28
11788 14731 14735 28
11789 14736 14737 28
11790 14736 14738 28
11791 14736 14739 28
11792 14736 14740 28
11793 14741 14742 28
11794 14741 14743 28
11795 14741 14744 28
11796 14741 14745 28
11797 14746 14747 28
11798 14746 14748 28
11799 14746 14749 28
11800 14746 14750 28
11801 14751 14752 28
11802 14751 14753 28
11803 14751 14754 28
11804 14751 14755 28
11805 14756 14757 28
11806 14756 14758 28
11807 14756 14759 28
11808 14756 14760 28
11809 14761 14762 28
11810 14761 14763 28
11811 14761 14764 28
11812 14761 14765 28
11813 14766 14767 28
11814 14766 14768 28
11815 14766 14769 28
11816 14766 14770 28
11817 14771 14772 28
11818 14771 14773 28
11819 14771 14774 28
11820 14771 14775 28
11821 14776 14777 28
11822 14776 14778 28
11823 14776 14779 28
11824 14776 14780 28
11825 14781 14782 28
11826 14781 14783 28
11827 14781 14784 28
11828 14781 14785 28
11829 14786 14787 28
11830 14786 14788 28
11831 14786 14789 28
11832 14786 14790 28
11833 14791 14792 28
11834 14791 14793 28
11835 14791 14794 28
11836 14791 14795 28
11837 14796 14797 28
11838 14796 14798 28
11839 14796 14799 28
11840 14796 14800 28
11841 14801 14802 28
11842 14801 14803 28
11843 14801 14804 28
11844 14801 14805 28
11845 14806 14807 28
11846 14806 14808 28
11847 14806 14809 28
11848 14806 14810 28
11849 14811 14812 28
11850 14811 14813 28
11851 14811 14814 28
11852 14811 14815 28
11853 14816 14817 28
11854 14816 14818 28
11855 14816 14819 28
11856 14816 14820 28
11857 14821 14822 28
11858 14821 14823 28
11859 14821 14824 28
11860 14821 14825 28
11861 14826 14827 28
11862 14826 14828 28
11863 14826 14829 28
11864 14826 14830 28
11865 14831 14832 28
11866 14831 14833 28
11867 14831 14834 28
11868 14831 14835 28
11869 14836 14837 28
11870 14836 14838 28
11871 14836 14839 28
11872 14836 14840 28
11873 14841 14842 28
11874 14841 14843 28
11875 14841 14844 28
11876 14841 14845 28
11877 14846 14847 28
11878 14846 14848 28
11879 14846 14849 28
11880 14846 14850 28
11881 14851 14852 28
11882 14851 14853 28
11883 14851 14854 28
11884 14851 14855 28
11885 14856 14857 28
11886 14856 14858 28
11887 14856 14859 28
11888 14856 14860 28
11889 14861 14862 28
11890 14861 14863 28
11891 14861 14864 28
11892 14861 14865 28
11893 14866 14867 28
11894 14866 14868 28
11895 14866 14869 28
11896 14866 14870 28
11897 14871 14872 28
11898 14871 14873 28
11899 14871 14874 28
11900 14871 14875 28
11901 14876 14877 28
11902 14876 14878 28
11903 14876 14879 28
11904 14876 14880 28
11905 14881 14882 28
11906 14881 14883 28
11907 14881 14884 28
11908 14881 14885 28
11909 14886 14887 28
11910 14886 14888 28
11911 14886 14889 28
11912 14886 14890 28
11913 14891 14892 28
11914 14891 14893 28
11915 14891 14894 28
11916 14891 14895 28
11917 14896 14897 28
11918 14896 14898 28
11919 14896 14899 28
11920 14896 14900 28
11921 14901 14902 28
11922 14901 14903 28
11923 14901 14904 28
11924 14901 14905 28
11925 14906 14907 28
11926 14906 14908 28
11927 14906 14909 28
11928 14906 14910 28
11929 14911 14912 28
11930 14911 14913 28
11931 14911 14914 28
11932 14911 14915 28
11933 14916 14917 28
11934 14916 14918 28
11935 14916 14919 28
11936 14916 14920 28
11937 14921 14922 28
11938 14921 14923 28
11939 14921 14924 28
11940 14921 14925 28
11941 14926 14927 28
11942 14926 14928 28
11943 14926 14929 28
11944 14926 14930 28
11945 14931 14932 28
11946 14931 14933 28
11947 14931 14934 28
11948 14931 14935 28
11949 14936 14937 28
11950 14936 14938 28
11951 14936 14939 28
11952 14936 14940 28
11953 14941 14942 28
11954 14941 14943 28
11955 14941 14944 28
11956 14941 14945 28
11957 14946 14947 28
11958 14946 14948 28
11959 14946 14949 28
11960 14946 14950 28
11961 14951 14952 28
11962 14951 14953 28
11963 14951 14954 28
11964 14951 14955 28
11965 14956 14957 28
11966 14956 14958 28
11967 14956 14959 28
11968 14956 14960 28
11969 14961 14962 28
11970 14961 14963 28
11971 14961 14964 28
11972 14961 14965 28
11973 14966 14967 28
11974 14966 14968 28
11975 14966 14969 28
11976 14966 14970 28
11977 14971 14972 28
11978 14971 14973 28
11979 14971 14974 28
11980 14971 14975 28
11981 14976 14977 28
11982 14976 14978 28
11983 14976 14979 28
11984 14976 14980 28
11985 14981 14982 28
11986 14981 14983 28
11987 14981 14984 28
11988 14981 14985 28
11989 14986 14987 28
11990 14986 14988 28
11991 14986 14989 28
11992 14986 14990 28
11993 14991 14992 28
11994 14991 14993 28
11995 14991 14994 28
11996 14991 14995 28
11997 14996 14997 28
11998 14996 14998 28
11999 14996 14999 28
12000 14996 15000 28
12001 15001 15002 28
12002 15001 15003 28
12003 15001 15004 28
12004 15001 15005 28
12005 15006 15007 28
12006 15006 15008 28
12007 15006 15009 28
12008 15006 15010 28
12009 15011 15012 28
12010 15011 15013 28
12011 15011 15014 28
12012 15011 15015 28
12013 15016 15017 28
12014 15016 15018 28
12015 15016 15019 28
12016 15016 15020 28
12017 15021 15022 28
12018 15021 15023 28
12019 15021 15024 28
12020 15021 15025 28
12021 15026 15027 28
12022 15026 15028 28
12023 15026 15029 28
12024 15026 15030 28
12025 15031 15032 28
12026 15031 15033 28
12027 15031 15034 28
12028 15031 15035 28
12029 15036 15037 28
12030 15036 15038 28
12031 15036 15039 28
12032 15036 15040 28
12033 15041 15042 28
12034 15041 15043 28
12035 15041 15044 28
12036 15041 15045 28
12037 15046 15047 28
12038 15046 15048 28
12039 15046 15049 28
12040 15046 15050 28
12041 15051 15052 28
12042 15051 15053 28
12043 15051 15054 28
12044 15051 15055 28
12045 15056 15057 28
12046 15056 15058 28
12047 15056 15059 28
12048 15056 15060 28
12049 15061 15062 28
12050 15061 15063 28
12051 15061 15064 28
12052 15061 15065 28
12053 15066 15067 28
12054 15066 15068 28
12055 15066 15069 28
12056 15066 15070 28
12057 15071 15072 28
12058 15071 15073 28
12059 15071 15074 28
12060 15071 15075 28
12061 15076 15077 28
12062 15076 15078 28
12063 15076 15079 28
12064 15076 15080 28
12065 15081 15082 28
12066 15081 15083 28
12067 15081 15084 28
12068 15081 15085 28
12069 15086 15087 28
12070 15086 15088 28
12071 15086 15089 28
12072 15086 15090 28
12073 15091 15092 28
12074 15091 15093 28
12075 15091 15094 28
12076 15091 15095 28
12077 15096 15097 28
12078 15096 15098 28
12079 15096 15099 28
12080 15096 15100 28
12081 15101 15102 28
12082 15101 15103 28
12083 15101 15104 28
12084 15101 15105 28
12085 15106 15107 28
12086 15106 15108 28
12087 15106 15109 28
12088 15106 15110 28
12089 15111 15112 28
12090 15111 15113 28
12091 15111 15114 28
12092 15111 15115 28
12093 15116 15117 28
12094 15116 15118 28
12095 15116 15119 28
12096 15116 15120 28
12097 15121 15122 28
12098 15121 15123 28
12099 15121 15124 28
12100 15121 15125 28
12101 15126 15127 28
12102 15126 15128 28
12103 15126 15129 28
12104 15126 15130 28
12105 15131 15132 28
12106 15131 15133 28
12107 15131 15134 28
12108 15131 15135 28
12109 15136 15137 28
12110 15136 15138 28
12111 15136 15139 28
12112 15136 15140 28
12113 15141 15142 28
12114 15141 15143 28
12115 15141 15144 28
12116 15141 15145 28
12117 15146 15147 28
12118 15146 15148 28
12119 15146 15149 28
12120 15146 15150 28
12121 15151 15152 28
12122 15151 15153 28
12123 15151 15154 28
12124 15151 15155 28
12125 15156 15157 28
12126 15156 15158 28
12127 15156 15159 28
12128 15156 15160 28
12129 15161 15162 28
12130 15161 15163 28
12131 15161 15164 28
12132 15161 15165 28
12133 15166 15167 28
12134 15166 15168 28
12135 15166 15169 28
12136 15166 15170 28
12137 15171 15172 28
12138 15171 15173 28
12139 15171 15174 28
12140 15171 15175 28
12141 15176 15177 28
12142 15176 15178 28
12143 15176 15179 28
12144 15176 15180 28
12145 15181 15182 28
12146 15181 15183 28
12147 15181 15184 28
12148 15181 15185 28
12149 15186 15187 28
12150 15186 15188 28
12151 15186 15189 28
12152 15186 15190 28
12153 15191 15192 28
12154 15191 15193 28
12155 15191 15194 28
12156 15191 15195 28
12157 15196 15197 28
12158 15196 15198 28
12159 15196 15199 28
12160 15196 15200 28
12161 15201 15202 28
12162 15201 15203 28
12163 15201 15204 28
12164 15201 15205 28
12165 15206 15207 28
12166 15206 15208 28
12167 15206 15209 28
12168 15206 15210 28
12169 15211 15212 28
12170 15211 15213 28
12171 15211 15214 28
12172 15211 15215 28
12173 15216 15217 28
12174 15216 15218 28
12175 15216 15219 28
12176 15216 15220 28
12177 15221 15222 28
12178 15221 15223 28
12179 15221 15224 28
12180 15221 15225 28
12181 15226 15227 28
12182 15226 15228 28
12183 15226 15229 28
12184 15226 15230 28
12185 15231 15232 28
12186 15231 15233 28
12187 15231 15234 28
12188 15231 15235 28
12189 15236 15237 28
12190 15236 15238 28
12191 15236 15239 28
12192 15236 15240 28
12193 15241 15242 28
12194 15241 15243 28
12195 15241 15244 28
12196 15241 15245 28
12197 15246 15247 28
12198 15246 15248 28
12199 15246 15249 28
12200 15246 15250 28
12201 15251 15252 28
12202 15251 15253 28
12203 15251 15254 28
12204 15251 15255 28
12205 15256 15257 28
12206 15256 15258 28
12207 15256 15259 28
12208 15256 15260 28
12209 15261 15262 28
12210 15261 15263 28
12211 15261 15264 28
12212 15261 15265 28
12213 15266 15267 28
12214 15266 15268 28
12215 15266 15269 28
12216 15266 15270 28
12217 15271 15272 28
12218 15271 15273 28
12219 15271 15274 28
12220 15271 15275 28
12221 15276 15277 28
12222 15276 15278 28
12223 15276 15279 28
12224 15276 15280 28
12225 15281 15282 28
12226 15281 15283 28
12227 15281 15284 28
12228 15281 15285 28
12229 15286 15287 28
12230 15286 15288 28
12231 15286 15289 28
12232 15286 15290 28
12233 15291 15292 28
12234 15291 15293 28
12235 15291 15294 28
12236 15291 15295 28
12237 15296 15297 28
12238 15296 15298 28
12239 15296 15299 28
12240 15296 15300 28
12241 15301 15302 28
12242 15301 15303 28
12243 15301 15304 28
12244 15301 15305 28
12245 15306 15307 28
12246 15306 15308 28
12247 15306 15309 28
12248 15306 15310 28
12249 15311 15312 28
12250 15311 15313 28
12251 15311 15314 28
12252 15311 15315 28
12253 15316 15317 28
12254 15316 15318 28
12255 15316 15319 28
12256 15316 15320 28
12257 15321 15322 28
12258 15321 15323 28
12259 15321 15324 28
12260 15321 15325 28
12261 15326 15327 28
12262 15326 15328 28
12263 15326 15329 28
12264 15326 15330 28
12265 15331 15332 28
12266 15331 15333 28
12267 15331 15334 28
12268 15331 15335 28
12269 15336 15337 28
12270 15336 15338 28
12271 15336 15339 28
12272 15336 15340 28
12273 15341 15342 28
12274 15341 15343 28
12275 15341 15344 28
12276 15341 15345 28
12277 15346 15347 28
12278 15346 15348 28
12279 15346 15349 28
12280 15346 15350 28
12281 15351 15352 28
12282 15351 15353 28
12283 15351 15354 28
12284 15351 15355 28
12285 15356 15357 28
12286 15356 15358 28
12287 15356 15359 28
12288 15356 15360 28
12289 15361 15362 28
12290 15361 15363 28
12291 15361 15364 28
12292 15361 15365 28
12293 15366 15367 28
12294 15366 15368 28
12295 15366 15369 28
12296 15366 15370 28
12297 15371 15372 28
12298 15371 15373 28
12299 15371 15374 28
12300 15371 15375 28
12301 15376 15377 28
12302 15376 15378 28
12303 15376 15379 28
12304 15376 15380 28
12305 15381 15382 28
12306 15381 15383 28
12307 15381 15384 28
12308 15381 15385 28
12309 15386 15387 28
12310 15386 15388 28
12311 15386 15389 28
12312 15386 15390 28
12313 15391 15392 28
12314 15391 15393 28
12315 15391 15394 28
12316 15391 15395 28
12317 15396 15397 28
12318 15396 15398 28
12319 15396 15399 28
12320 15396 15400 28
12321 15401 15402 28
12322 15401 15403 28
12323 15401 15404 28
12324 15401 15405 28
12325 15406 15407 28
12326 15406 15408 28
12327 15406 15409 28
12328 15406 15410 28
12329 15411 15412 28
12330 15411 15413 28
12331 15411 15414 28
12332 15411 15415 28
12333 15416 15417 28
12334 15416 15418 28
12335 15416 15419 28
12336 15416 15420 28
12337 15421 15422 28
12338 15421 15423 28
12339 15421 15424 28
12340 15421 15425 28
12341 15426 15427 28
12342 15426 15428 28
12343 15426 15429 28
12344 15426 15430 28
12345 15431 15432 28
12346 15431 15433 28
12347 15431 15434 28
12348 15431 15435 28
12349 15436 15437 28
12350 15436 15438 28
12351 15436 15439 28
12352 15436 15440 28
12353 15441 15442 28
12354 15441 15443 28
12355 15441 15444 28
12356 15441 15445 28
12357 15446 15447 28
12358 15446 15448 28
12359 15446 15449 28
12360 15446 15450 28
12361 15451 15452 28
12362 15451 15453 28
12363 15451 15454 28
12364 15451 15455 28
12365 15456 15457 28
12366 15456 15458 28
12367 15456 15459 28
12368 15456 15460 28
12369 15461 15462 28
12370 15461 15463 28
12371 15461 15464 28
12372 15461 15465 28
12373 15466 15467 28
12374 15466 15468 28
12375 15466 15469 28
12376 15466 15470 28
12377 15471 15472 28
12378 15471 15473 28
12379 15471 15474 28
12380 15471 15475 28
12381 15476 15477 28
12382 15476 15478 28
12383 15476 15479 28
12384 15476 15480 28
12385 15481 15482 28
12386 15481 15483 28
12387 15481 15484 28
12388 15481 15485 28
12389 15486 15487 28
12390 15486 15488 28
12391 15486 15489 28
12392 15486 15490 28
12393 15491 15492 28
12394 15491 15493 28
12395 15491 15494 28
12396 15491 15495 28
12397 15496 15497 28
12398 15496 15498 28
12399 15496 15499 28
12400 15496 15500 28
12401 15501 15502 28
12402 15501 15503 28
12403 15501 15504 28
12404 15501 15505 28
12405 15506 15507 28
12406 15506 15508 28
12407 15506 15509 28
12408 15506 15510 28
12409 15511 15512 28
12410 15511 15513 28
12411 15511 15514 28
12412 15511 15515 28
12413 15516 15517 28
12414 15516 15518 28
12415 15516 15519 28
12416 15516 15520 28
12417 15521 15522 28
12418 15521 15523 28
12419 15521 15524 28
12420 15521 15525 28
12421 15526 15527 28
12422 15526 15528 28
12423 15526 15529 28
12424 15526 15530 28
12425 15531 15532 28
12426 15531 15533 28
12427 15531 15534 28
12428 15531 15535 28
12429 15536 15537 28
12430 15536 15538 28
12431 15536 15539 28
12432 15536 15540 28
12433 15541 15542 28
12434 15541 15543 28
12435 15541 15544 28
12436 15541 15545 28
12437 15546 15547 28
12438 15546 15548 28
12439 15546 15549 28
12440 15546 15550 28
12441 15551 15552 28
12442 15551 15553 28
12443 15551 15554 28
12444 15551 15555 28
12445 15556 15557 28
12446 15556 15558 28
12447 15556 15559 28
12448 15556 15560 28
12449 15561 15562 28
12450 15561 15563 28
12451 15561 15564 28
12452 15561 15565 28
12453 15566 15567 28
12454 15566 15568 28
12455 15566 15569 28
12456 15566 15570 28
12457 15571 15572 28
12458 15571 15573 28
12459 15571 15574 28
12460 15571 15575 28
12461 15576 15577 28
12462 15576 15578 28
12463 15576 15579 28
12464 15576 15580 28
12465 15581 15582 28
12466 15581 15583 28
12467 15581 15584 28
12468 15581 15585 28
12469 15586 15587 28
12470 15586 15588 28
12471 15586 15589 28
12472 15586 15590 28
12473 15591 15592 28
12474 15591 15593 28
12475 15591 15594 28
12476 15591 15595 28
12477 15596 15597 28
12478 15596 15598 28
12479 15596 15599 28
12480 15596 15600 28
12481 15601 15602 28
12482 15601 15603 28
12483 15601 15604 28
12484 15601 15605 28
12485 15606 15607 28
12486 15606 15608 28
12487 15606 15609 28
12488 15606 15610 28
12489 15611 15612 28
12490 15611 15613 28
12491 15611 15614 28
12492 15611 15615 28
12493 15616 15617 28
12494 15616 15618 28
12495 15616 15619 28
12496 15616 15620 28
12497 15621 15622 28
12498 15621 15623 28
12499 15621 15624 28
12500 15621 15625 28
12501 15626 15627 28
12502 15626 15628 28
12503 15626 15629 28
12504 15626 15630 28
12505 15631 15632 28
12506 15631 15633 28
12507 15631 15634 28
12508 15631 15635 28
12509 15636 15637 28
12510 15636 15638 28
12511 15636 15639 28
12512 15636 15640 28
12513 15641 15642 28
12514 15641 15643 28
12515 15641 15644 28
12516 15641 15645 28
12517 15646 15647 28
12518 15646 15648 28
12519 15646 15649 28
12520 15646 15650 28
12521 15651 15652 28
12522 15651 15653 28
12523 15651 15654 28
12524 15651 15655 28
12525 15656 15657 28
12526 15656 15658 28
12527 15656 15659 28
12528 15656 15660 28
12529 15661 15662 28
12530 15661 15663 28
12531 15661 15664 28
12532 15661 15665 28
12533 15666 15667 28
12534 15666 15668 28
12535 15666 15669 28
12536 15666 15670 28
12537 15671 15672 28
12538 15671 15673 28
12539 15671 15674 28
12540 15671 15675 28
12541 15676 15677 28
12542 15676 15678 28
12543 15676 15679 28
12544 15676 15680 28
12545 15681 15682 28
12546 15681 15683 28
12547 15681 15684 28
12548 15681 15685 28
12549 15686 15687 28
12550 15686 15688 28
12551 15686 15689 28
12552 15686 15690 28
12553 15691 15692 28
12554 15691 15693 28
12555 15691 15694 28
12556 15691 15695 28
12557 15696 15697 28
12558 15696 15698 28
12559 15696 15699 28
12560 15696 15700 28
12561 15701 15702 28
12562 15701 15703 28
12563 15701 15704 28
12564 15701 15705 28
12565 15706 15707 28
12566 15706 15708 28
12567 15706 15709 28
12568 15706 15710 28
12569 15711 15712 28
12570 15711 15713 28
12571 15711 15714 28
12572 15711 15715 28
12573 15716 15717 28
12574 15716 15718 28
12575 15716 15719 28
12576 15716 15720 28
12577 15721 15722 28
12578 15721 15723 28
12579 15721 15724 28
12580 15721 15725 28
12581 15726 15727 28
12582 15726 15728 28
12583 15726 15729 28
12584 15726 15730 28
12585 15731 15732 28
12586 15731 15733 28
12587 15731 15734 28
12588 15731 15735 28
12589 15736 15737 28
12590 15736 15738 28
12591 15736 15739 28
12592 15736 15740 28
12593 15741 15742 28
12594 15741 15743 28
12595 15741 15744 28
12596 15741 15745 28
12597 15746 15747 28
12598 15746 15748 28
12599 15746 15749 28
12600 15746 15750 28
12601 15751 15752 28
12602 15751 15753 28
12603 15751 15754 28
12604 15751 15755 28
12605 15756 15757 28
12606 15756 15758 28
12607 15756 15759 28
12608 15756 15760 28
12609 15761 15762 28
12610 15761 15763 28
12611 15761 15764 28
12612 15761 15765 28
12613 15766 15767 28
12614 15766 15768 28
12615 15766 15769 28
12616 15766 15770 28
12617 15771 15772 28
12618 15771 15773 28
12619 15771 15774 28
12620 15771 15775 28
12621 15776 15777 28
12622 15776 15778 28
12623 15776 15779 28
12624 15776 15780 28
12625 15781 15782 28
12626 15781 15783 28
12627 15781 15784 28
12628 15781 15785 28
12629 15786 15787 28
12630 15786 15788 28
12631 15786 15789 28
12632 15786 15790 28
12633 15791 15792 28
12634 15791 15793 28
12635 15791 15794 28
12636 15791 15795 28
12637 15796 15797 28
12638 15796 15798 28
12639 15796 15799 28
12640 15796 15800 28
12641 15801 15802 28
12642 15801 15803 28
12643 15801 15804 28
12644 15801 15805 28
12645 15806 15807 28
12646 15806 15808 28
12647 15806 15809 28
12648 15806 15810 28
12649 15811 15812 28
12650 15811 15813 28
12651 15811 15814 28
12652 15811 15815 28
12653 15816 15817 28
12654 15816 15818 28
12655 15816 15819 28
12656 15816 15820 28
12657 15821 15822 28
12658 15821 15823 28
12659 15821 15824 28
12660 15821 15825 28
12661 15826 15827 28
12662 15826 15828 28
12663 15826 15829 28
12664 15826 15830 28
12665 15831 15832 28
12666 15831 15833 28
12667 15831 15834 28
12668 15831 15835 28
12669 15836 15837 28
12670 15836 15838 28
12671 15836 15839 28
12672 15836 15840 28
12673 15841 15842 28
12674 15841 15843 28
12675 15841 15844 28
12676 15841 15845 28
12677 15846 15847 28
12678 15846 15848 28
12679 15846 15849 28
12680 15846 15850 28
12681 15851 15852 28
12682 15851 15853 28
12683 15851 15854 28
12684 15851 15855 28
12685 15856 15857 28
12686 15856 15858 28
12687 15856 15859 28
12688 15856 15860 28
12689 15861 15862 28
12690 15861 15863 28
12691 15861 15864 28
12692 15861 15865 28
12693 15866 15867 28
12694 15866 15868 28
12695 15866 15869 28
12696 15866 15870 28
12697 15871 15872 28
12698 15871 15873 28
12699 15871 15874 28
12700 15871 15875 28
12701 15876 15877 28
12702 15876 15878 28
12703 15876 15879 28
12704 15876 15880 28
12705 15881 15882 28
12706 15881 15883 28
12707 15881 15884 28
12708 15881 15885 28
12709 15886 15887 28
12710 15886 15888 28
12711 15886 15889 28
12712 15886 15890 28
12713 15891 15892 28
12714 15891 15893 28
12715 15891 15894 28
12716 15891 15895 28
12717 15896 15897 28
12718 15896 15898 28
12719 15896 15899 28
12720 15896 15900 28
12721 15901 15902 28
12722 15901 15903 28
12723 15901 15904 28
12724 15901 15905 28
12725 15906 15907 28
12726 15906 15908 28
12727 15906 15909 28
12728 15906 15910 28
12729 15911 15912 28
12730 15911 15913 28
12731 15911 15914 28
12732 15911 15915 28
12733 15916 15917 28
12734 15916 15918 28
12735 15916 15919 28
12736 15916 15920 28
12737 15921 15922 28
12738 15921 15923 28
12739 15921 15924 28
12740 15921 15925 28
12741 15926 15927 28
12742 15926 15928 28
12743 15926 15929 28
12744 15926 15930 28
12745 15931 15932 28
12746 15931 15933 28
12747 15931 15934 28
12748 15931 15935 28
12749 15936 15937 28
12750 15936 15938 28
12751 15936 15939 28
12752 15936 15940 28
12753 15941 15942 28
12754 15941 15943 28
12755 15941 15944 28
12756 15941 15945 28
12757 15946 15947 28
12758 15946 15948 28
12759 15946 15949 28
12760 15946 15950 28
12761 15951 15952 28
12762 15951 15953 28
12763 15951 15954 28
12764 15951 15955 28
12765 15956 15957 28
12766 15956 15958 28
12767 15956 15959 28
12768 15956 15960 28
12769 15961 15962 28
12770 15961 15963 28
12771 15961 15964 28
12772 15961 15965 28
12773 15966 15967 28
12774 15966 15968 28
12775 15966 15969 28
12776 15966 15970 28
12777 15971 15972 28
12778 15971 15973 28
12779 15971 15974 28
12780 15971 15975 28
12781 15976 15977 28
12782 15976 15978 28
12783 15976 15979 28
12784 15976 15980 28
12785 15981 15982 28
12786 15981 15983 28
12787 15981 15984 28
12788 15981 15985 28
12789 15986 15987 28
12790 15986 15988 28
12791 15986 15989 28
12792 15986 15990 28
12793 15991 15992 28
12794 15991 15993 28
12795 15991 15994 28
12796 15991 15995 28
12797 15996 15997 28
12798 15996 15998 28
12799 15996 15999 28
12800 15996 16000 28
12801 16001 16002 28
12802 16001 16003 28
12803 16001 16004 28
12804 16001 16005 28
12805 16006 16007 28
12806 16006 16008 28
12807 16006 16009 28
12808 16006 16010 28
12809 16011 16012 28
12810 16011 16013 28
12811 16011 16014 28
12812 16011 16015 28
12813 16016 16017 28
12814 16016 16018 28
12815 16016 16019 28
12816 16016 16020 28
12817 16021 16022 28
12818 16021 16023 28
12819 16021 16024 28
12820 16021 16025 28
12821 16026 16027 28
12822 16026 16028 28
12823 16026 16029 28
12824 16026 16030 28
12825 16031 16032 28
12826 16031 16033 28
12827 16031 16034 28
12828 16031 16035 28
12829 16036 16037 28
12830 16036 16038 28
12831 16036 16039 28
12832 16036 16040 28
12833 16041 16042 28
12834 16041 16043 28
12835 16041 16044 28
12836 16041 16045 28
12837 16046 16047 28
12838 16046 16048 28
12839 16046 16049 28
12840 16046 16050 28
12841 16051 16052 28
12842 16051 16053 28
12843 16051 16054 28
12844 16051 16055 28
12845 16056 16057 28
12846 16056 16058 28
12847 16056 16059 28
12848 16056 16060 28
12849 16061 16062 28
12850 16061 16063 28
12851 16061 16064 28
12852 16061 16065 28
12853 16066 16067 28
12854 16066 16068 28
12855 16066 16069 28
12856 16066 16070 28
12857 16071 16072 28
12858 16071 16073 28
12859 16071 16074 28
12860 16071 16075 28
12861 16076 16077 28
12862 16076 16078 28
12863 16076 16079 28
12864 16076 16080 28
12865 16081 16082 28
12866 16081 16083 28
12867 16081 16084 28
12868 16081 16085 28
12869 16086 16087 28
12870 16086 16088 28
12871 16086 16089 28
12872 16086 16090 28
12873 16091 16092 28
12874 16091 16093 28
12875 16091 16094 28
12876 16091 16095 28
12877 16096 16097 28
12878 16096 16098 28
12879 16096 16099 28
12880 16096 16100 28
12881 16101 16102 28
12882 16101 16103 28
12883 16101 16104 28
12884 16101 16105 28
12885 16106 16107 28
12886 16106 16108 28
12887 16106 16109 28
12888 16106 16110 28
12889 16111 16112 28
12890 16111 16113 28
12891 16111 16114 28
12892 16111 16115 28
12893 16116 16117 28
12894 16116 16118 28
12895 16116 16119 28
12896 16116 16120 28
12897 16121 16122 28
12898 16121 16123 28
12899 16121 16124 28
12900 16121 16125 28
12901 16126 16127 28
12902 16126 16128 28
12903 16126 16129 28
12904 16126 16130 28
12905 16131 16132 28
12906 16131 16133 28
12907 16131 16134 28
12908 16131 16135 28
12909 16136 16137 28
12910 16136 16138 28
12911 16136 16139 28
12912 16136 16140 28
12913 16141 16142 28
12914 16141 16143 28
12915 16141 16144 28
12916 16141 16145 28
12917 16146 16147 28
12918 16146 16148 28
12919 16146 16149 28
12920 16146 16150 28
12921 16151 16152 28
12922 16151 16153 28
12923 16151 16154 28
12924 16151 16155 28
12925 16156 16157 28
12926 16156 16158 28
12927 16156 16159 28
12928 16156 16160 28
12929 16161 16162 28
12930 16161 16163 28
12931 16161 16164 28
12932 16161 16165 28
12933 16166 16167 28
12934 16166 16168 28
12935 16166 16169 28
12936 16166 16170 28
12937 16171 16172 28
12938 16171 16173 28
12939 16171 16174 28
12940 16171 16175 28
12941 16176 16177 28
12942 16176 16178 28
12943 16176 16179 28
12944 16176 16180 28
12945 16181 16182 28
12946 16181 16183 28
12947 16181 16184 28
12948 16181 16185 28
12949 16186 16187 28
12950 16186 16188 28
12951 16186 16189 28
12952 16186 16190 28
12953 16191 16192 28
12954 16191 16193 28
12955 16191 16194 28
12956 16191 16195 28
12957 16196 16197 28
12958 16196 16198 28
12959 16196 16199 28
12960 16196 16200 28
12961 16201 16202 28
12962 16201 16203 28
12963 16201 16204 28
12964 16201 16205 28
12965 16206 16207 28
12966 16206 16208 28
12967 16206 16209 28
12968 16206 16210 28
12969 16211 16212 28
12970 16211 16213 28
12971 16211 16214 28
12972 16211 16215 28
12973 16216 16217 28
12974 16216 16218 28
12975 16216 16219 28
12976 16216 16220 28
12977 16221 16222 28
12978 16221 16223 28
12979 16221 16224 28
12980 16221 16225 28
12981 16226 16227 28
12982 16226 16228 28
12983 16226 16229 28
12984 16226 16230 28
12985 16231 16232 28
12986 16231 16233 28
12987 16231 16234 28
12988 16231 16235 28
12989 16236 16237 28
12990 16236 16238 28
12991 16236 16239 28
12992 16236 16240 28
12993 16241 16242 28
12994 16241 16243 28
12995 16241 16244 28
12996 16241 16245 28
12997 16246 16247 28
12998 16246 16248 28
12999 16246 16249 28
13000 16246 16250 28
13001 16251 16252 28
13002 16251 16253 28
13003 16251 16254 28
13004 16251 16255 28
13005 16256 16257 28
13006 16256 16258 28
13007 16256 16259 28
13008 16256 16260 28
13009 16261 16262 28
13010 16261 16263 28
13011 16261 16264 28
13012 16261 16265 28
13013 16266 16267 28
13014 16266 16268 28
13015 16266 16269 28
13016 16266 16270 28
13017 16271 16272 28
13018 16271 16273 28
13019 16271 16274 28
13020 16271 16275 28
13021 16276 16277 28
13022 16276 16278 28
13023 16276 16279 28
13024 16276 16280 28
13025 16281 16282 28
13026 16281 16283 28
13027 16281 16284 28
13028 16281 16285 28
13029 16286 16287 28
13030 16286 16288 28
13031 16286 16289 28
13032 16286 16290 28
13033 16291 16292 28
13034 16291 16293 28
13035 16291 16294 28
13036 16291 16295 28
13037 16296 16297 28
13038 16296 16298 28
13039 16296 16299 28
13040 16296 16300 28
13041 16301 16302 28
13042 16301 16303 28
13043 16301 16304 28
13044 16301 16305 28
13045 16306 16307 28
13046 16306 16308 28
13047 16306 16309 28
13048 16306 16310 28
13049 16311 16312 28
13050 16311 16313 28
13051 16311 16314 28
13052 16311 16315 28
13053 16316 16317 28
13054 16316 16318 28
13055 16316 16319 28
13056 16316 16320 28
13057 16321 16322 28
13058 16321 16323 28
13059 16321 16324 28
13060 16321 16325 28
13061 16326 16327 28
13062 16326 16328 28
13063 16326 16329 28
13064 16326 16330 28
13065 16331 16332 28
13066 16331 16333 28
13067 16331 16334 28
13068 16331 16335 28
13069 16336 16337 28
13070 16336 16338 28
13071 16336 16339 28
13072 16336 16340 28
13073 16341 16342 28
13074 16341 16343 28
13075 16341 16344 28
13076 16341 16345 28
13077 16346 16347 28
13078 16346 16348 28
13079 16346 16349 28
13080 16346 16350 28
13081 16351 16352 28
13082 16351 16353 28
13083 16351 16354 28
13084 16351 16355 28
13085 16356 16357 28
13086 16356 16358 28
13087 16356 16359 28
13088 16356 16360 28
13089 16361 16362 28
13090 16361 16363 28
13091 16361 16364 28
13092 16361 16365 28
13093 16366 16367 28
13094 16366 16368 28
13095 16366 16369 28
13096 16366 16370 28
13097 16371 16372 28
13098 16371 16373 28
13099 16371 16374 28
13100 16371 16375 28
13101 16376 16377 28
13102 16376 16378 28
13103 16376 16379 28
13104 16376 16380 28
13105 16381 16382 28
13106 16381 16383 28
13107 16381 16384 28
13108 16381 16385 28
13109 16386 16387 28
13110 16386 16388 28
13111 16386 16389 28
13112 16386 16390 28
13113 16391 16392 28
13114 16391 16393 28
13115 16391 16394 28
13116 16391 16395 28
13117 16396 16397 28
13118 16396 16398 28
13119 16396 16399 28
13120 16396 16400 28
13121 16401 16402 28
13122 16401 16403 28
13123 16401 16404 28
13124 16401 16405 28
13125 16406 16407 28
13126 16406 16408 28
13127 16406 16409 28
13128 16406 16410 28
13129 16411 16412 28
13130 16411 16413 28
13131 16411 16414 28
13132 16411 16415 28
13133 16416 16417 28
13134 16416 16418 28
13135 16416 16419 28
13136 16416 16420 28
13137 16421 16422 28
13138 16421 16423 28
13139 16421 16424 28
13140 16421 16425 28
13141 16426 16427 28
13142 16426 16428 28
13143 16426 16429 28
13144 16426 16430 28
13145 16431 16432 28
13146 16431 16433 28
13147 16431 16434 28
13148 16431 16435 28
13149 16436 16437 28
13150 16436 16438 28
13151 16436 16439 28
13152 16436 16440 28
13153 16441 16442 28
13154 16441 16443 28
13155 16441 16444 28
13156 16441 16445 28
13157 16446 16447 28
13158 16446 16448 28
13159 16446 16449 28
13160 16446 16450 28
13161 16451 16452 28
13162 16451 16453 28
13163 16451 16454 28
13164 16451 16455 28
13165 16456 16457 28
13166 16456 16458 28
13167 16456 16459 28
13168 16456 16460 28
13169 16461 16462 28
13170 16461 16463 28
13171 16461 16464 28
13172 16461 16465 28
13173 16466 16467 28
13174 16466 16468 28
13175 16466 16469 28
13176 16466 16470 28
13177 16471 16472 28
13178 16471 16473 28
13179 16471 16474 28
13180 16471 16475 28
13181 16476 16477 28
13182 16476 16478 28
13183 16476 16479 28
13184 16476 16480 28
13185 16481 16482 28
13186 16481 16483 28
13187 16481 16484 28
13188 16481 16485 28
13189 16486 16487 28
13190 16486 16488 28
13191 16486 16489 28
13192 16486 16490 28
13193 16491 16492 28
13194 16491 16493 28
13195 16491 16494 28
13196 16491 16495 28
13197 16496 16497 28
13198 16496 16498 28
13199 16496 16499 28
13200 16496 16500 28
13201 16501 16502 28
13202 16501 16503 28
13203 16501 16504 28
13204 16501 16505 28
13205 16506 16507 28
13206 16506 16508 28
13207 16506 16509 28
13208 16506 16510 28
13209 16511 16512 28
13210 16511 16513 28
13211 16511 16514 28
13212 16511 16515 28
13213 16516 16517 28
13214 16516 16518 28
13215 16516 16519 28
13216 16516 16520 28
13217 16521 16522 28
13218 16521 16523 28
13219 16521 16524 28
13220 16521 16525 28
13221 16526 16527 28
13222 16526 16528 28
13223 16526 16529 28
13224 16526 16530 28
13225 16531 16532 28
13226 16531 16533 28
13227 16531 16534 28
13228 16531 16535 28
13229 16536 16537 28
13230 16536 16538 28
13231 16536 16539 28
13232 16536 16540 28
13233 16541 16542 28
13234 16541 16543 28
13235 16541 16544 28
13236 16541 16545 28
13237 16546 16547 28
13238 16546 16548 28
13239 16546 16549 28
13240 16546 16550 28
13241 16551 16552 28
13242 16551 16553 28
13243 16551 16554 28
13244 16551 16555 28
13245 16556 16557 28
13246 16556 16558 28
13247 16556 16559 28
13248 16556 16560 28
13249 16561 16562 28
13250 16561 16563 28
13251 16561 16564 28
13252 16561 16565 28
13253 16566 16567 28
13254 16566 16568 28
13255 16566 16569 28
13256 16566 16570 28
13257 16571 16572 28
13258 16571 16573 28
13259 16571 16574 28
13260 16571 16575 28
13261 16576 16577 28
13262 16576 16578 28
13263 16576 16579 28
13264 16576 16580 28
13265 16581 16582 28
13266 16581 16583 28
13267 16581 16584 28
13268 16581 16585 28
13269 16586 16587 28
13270 16586 16588 28
13271 16586 16589 28
13272 16586 16590 28
13273 16591 16592 28
13274 16591 16593 28
13275 16591 16594 28
13276 16591 16595 28
13277 16596 16597 28
13278 16596 16598 28
13279 16596 16599 28
13280 16596 16600 28
13281 16601 16602 28
13282 16601 16603 28
13283 16601 16604 28
13284 16601 16605 28
13285 16606 16607 28
13286 16606 16608 28
13287 16606 16609 28
13288 16606 16610 28
13289 16611 16612 28
13290 16611 16613 28
13291 16611 16614 28
13292 16611 16615 28
13293 16616 16617 28
13294 16616 16618 28
13295 16616 16619 28
13296 16616 16620 28
13297 16621 16622 28
13298 16621 16623 28
13299 16621 16624 28
13300 16621 16625 28
13301 16626 16627 28
13302 16626 16628 28
13303 16626 16629 28
13304 16626 16630 28
13305 16631 16632 28
13306 16631 16633 28
13307 16631 16634 28
13308 16631 16635 28
13309 16636 16637 28
13310 16636 16638 28
13311 16636 16639 28
13312 16636 16640 28
13313 16641 16642 28
13314 16641 16643 28
13315 16641 16644 28
13316 16641 16645 28
13317 16646 16647 28
13318 16646 16648 28
13319 16646 16649 28
13320 16646 16650 28
13321 16651 16652 28
13322 16651 16653 28
13323 16651 16654 28
13324 16651 16655 28
13325 16656 16657 28
13326 16656 16658 28
13327 16656 16659 28
13328 16656 16660 28
13329 16661 16662 28
13330 16661 16663 28
13331 16661 16664 28
13332 16661 16665 28
13333 16666 16667 28
13334 16666 16668 28
13335 16666 16669 28
13336 16666 16670 28
13337 16671 16672 28
13338 16671 16673 28
13339 16671 16674 28
13340 16671 16675 28
13341 16676 16677 28
13342 16676 16678 28
13343 16676 16679 28
13344 16676 16680 28
13345 16681 16682 28
13346 16681 16683 28
13347 16681 16684 28
13348 16681 16685 28
13349 16686 16687 28
13350 16686 16688 28
13351 16686 16689 28
13352 16686 16690 28
13353 16691 16692 28
13354 16691 16693 28
13355 16691 16694 28
13356 16691 16695 28
13357 16696 16697 28
13358 16696 16698 28
13359 16696 16699 28
13360 16696 16700 28
13361 16701 16702 28
13362 16701 16703 28
13363 16701 16704 28
13364 16701 16705 28
13365 16706 16707 28
13366 16706 16708 28
13367 16706 16709 28
13368 16706 16710 28
13369 16711 16712 28
13370 16711 16713 28
13371 16711 16714 28
13372 16711 16715 28
13373 16716 16717 28
13374 16716 16718 28
13375 16716 16719 28
13376 16716 16720 28
13377 16721 16722 28
13378 16721 16723 28
13379 16721 16724 28
13380 16721 16725 28
13381 16726 16727 28
13382 16726 16728 28
13383 16726 16729 28
13384 16726 16730 28
13385 16731 16732 28
13386 16731 16733 28
13387 16731 16734 28
13388 16731 16735 28
13389 16736 16737 28
13390 16736 16738 28
13391 16736 16739 28
13392 16736 16740 28
13393 16741 16742 28
13394 16741 16743 28
13395 16741 16744 28
13396 16741 16745 28
13397 16746 16747 28
13398 16746 16748 28
13399 16746 16749 28
13400 16746 16750 28
13401 16751 16752 28
13402 16751 16753 28
13403 16751 16754 28
13404 16751 16755 28
13405 16756 16757 28
13406 16756 16758 28
13407 16756 16759 28
13408 16756 16760 28
13409 16761 16762 28
13410 16761 16763 28
13411 16761 16764 28
13412 16761 16765 28
13413 16766 16767 28
13414 16766 16768 28
13415 16766 16769 28
13416 16766 16770 28
13417 16771 16772 28
13418 16771 16773 28
13419 16771 16774 28
13420 16771 16775 28
13421 16776 16777 28
13422 16776 16778 28
13423 16776 16779 28
13424 16776 16780 28
13425 16781 16782 28
13426 16781 16783 28
13427 16781 16784 28
13428 16781 16785 28
13429 16786 16787 28
13430 16786 16788 28
13431 16786 16789 28
13432 16786 16790 28
13433 16791 16792 28
13434 16791 16793 28
13435 16791 16794 28
13436 16791 16795 28
13437 16796 16797 28
13438 16796 16798 28
13439 16796 16799 28
13440 16796 16800 28
13441 16801 16802 28
13442 16801 16803 28
13443 16801 16804 28
13444 16801 16805 28
13445 16806 16807 28
13446 16806 16808 28
13447 16806 16809 28
13448 16806 16810 28
13449 16811 16812 28
13450 16811 16813 28
13451 16811 16814 28
13452 16811 16815 28
13453 16816 16817 28
13454 16816 16818 28
13455 16816 16819 28
13456 16816 16820 28
13457 16821 16822 28
13458 16821 16823 28
13459 16821 16824 28
13460 16821 16825 28
13461 16826 16827 28
13462 16826 16828 28
13463 16826 16829 28
13464 16826 16830 28
13465 16831 16832 28
13466 16831 16833 28
13467 16831 16834 28
13468 16831 16835 28
13469 16836 16837 28
13470 16836 16838 28
13471 16836 16839 28
13472 16836 16840 28
13473 16841 16842 28
13474 16841 16843 28
13475 16841 16844 28
13476 16841 16845 28
13477 16846 16847 28
13478 16846 16848 28
13479 16846 16849 28
13480 16846 16850 28
13481 16851 16852 28
13482 16851 16853 28
13483 16851 16854 28
13484 16851 16855 28
13485 16856 16857 28
13486 16856 16858 28
13487 16856 16859 28
13488 16856 16860 28
13489 16861 16862 28
13490 16861 16863 28
13491 16861 16864 28
13492 16861 16865 28
13493 16866 16867 28
13494 16866 16868 28
13495 16866 16869 28
13496 16866 16870 28
13497 16871 16872 28
13498 16871 16873 28
13499 16871 16874 28
13500 16871 16875 28
13501 16876 16877 28
13502 16876 16878 28
13503 16876 16879 28
13504 16876 16880 28
13505 16881 16882 28
13506 16881 16883 28
13507 16881 16884 28
13508 16881 16885 28
13509 16886 16887 28
13510 16886 16888 28
13511 16886 16889 28
13512 16886 16890 28
13513 16891 16892 28
13514 16891 16893 28
13515 16891 16894 28
13516 16891 16895 28
13517 16896 16897 28
13518 16896 16898 28
13519 16896 16899 28
13520 16896 16900 28
13521 16901 16902 28
13522 16901 16903 28
13523 16901 16904 28
13524 16901 16905 28
13525 16906 16907 28
13526 16906 16908 28
13527 16906 16909 28
13528 16906 16910 28
13529 16911 16912 28
13530 16911 16913 28
13531 16911 16914 28
13532 16911 16915 28
13533 16916 16917 28
13534 16916 16918 28
13535 16916 16919 28
13536 16916 16920 28
13537 16921 16922 28
13538 16921 16923 28
13539 16921 16924 28
13540 16921 16925 28
13541 16926 16927 28
13542 16926 16928 28
13543 16926 16929 28
13544 16926 16930 28
13545 16931 16932 28
13546 16931 16933 28
13547 16931 16934 28
13548 16931 16935 28
13549 16936 16937 28
13550 16936 16938 28
13551 16936 16939 28
13552 16936 16940 28
13553 16941 16942 28
13554 16941 16943 28
13555 16941 16944 28
13556 16941 16945 28
13557 16946 16947 28
13558 16946 16948 28
13559 16946 16949 28
13560 16946 16950 28
13561 16951 16952 28
13562 16951 16953 28
13563 16951 16954 28
13564 16951 16955 28
13565 16956 16957 28
13566 16956 16958 28
13567 16956 16959 28
13568 16956 16960 28
13569 16961 16962 28
13570 16961 16963 28
13571 16961 16964 28
13572 16961 16965 28
13573 16966 16967 28
13574 16966 16968 28
13575 16966 16969 28
13576 16966 16970 28
13577 16971 16972 28
13578 16971 16973 28
13579 16971 16974 28
13580 16971 16975 28
13581 16976 16977 28
13582 16976 16978 28
13583 16976 16979 28
13584 16976 16980 28
13585 16981 16982 28
13586 16981 16983 28
13587 16981 16984 28
13588 16981 16985 28
13589 16986 16987 28
13590 16986 16988 28
13591 16986 16989 28
13592 16986 16990 28
13593 16991 16992 28
13594 16991 16993 28
13595 16991 16994 28
13596 16991 16995 28
13597 16996 16997 28
13598 16996 16998 28
13599 16996 16999 28
13600 16996 17000 28
13601 17001 17002 28
13602 17001 17003 28
13603 17001 17004 28
13604 17001 17005 28
13605 17006 17007 28
13606 17006 17008 28
13607 17006 17009 28
13608 17006 17010 28
13609 17011 17012 28
13610 17011 17013 28
13611 17011 17014 28
13612 17011 17015 28
13613 17016 17017 28
13614 17016 17018 28
13615 17016 17019 28
13616 17016 17020 28
13617 17021 17022 28
13618 17021 17023 28
13619 17021 17024 28
13620 17021 17025 28
13621 17026 17027 28
13622 17026 17028 28
13623 17026 17029 28
13624 17026 17030 28
13625 17031 17032 28
13626 17031 17033 28
13627 17031 17034 28
13628 17031 17035 28
13629 17036 17037 28
13630 17036 17038 28
13631 17036 17039 28
13632 17036 17040 28
13633 17041 17042 28
13634 17041 17043 28
13635 17041 17044 28
13636 17041 17045 28
13637 17046 17047 28
13638 17046 17048 28
13639 17046 17049 28
13640 17046 17050 28
13641 17051 17052 28
13642 17051 17053 28
13643 17051 17054 28
13644 17051 17055 28
13645 17056 17057 28
13646 17056 17058 28
13647 17056 17059 28
13648 17056 17060 28
13649 17061 17062 28
13650 17061 17063 28
13651 17061 17064 28
13652 17061 17065 28
13653 17066 17067 28
13654 17066 17068 28
13655 17066 17069 28
13656 17066 17070 28
13657 17071 17072 28
13658 17071 17073 28
13659 17071 17074 28
13660 17071 17075 28
13661 17076 17077 28
13662 17076 17078 28
13663 17076 17079 28
13664 17076 17080 28
13665 17081 17082 28
13666 17081 17083 28
13667 17081 17084 28
13668 17081 17085 28
13669 17086 17087 28
13670 17086 17088 28
13671 17086 17089 28
13672 17086 17090 28
13673 17091 17092 28
13674 17091 17093 28
13675 17091 17094 28
13676 17091 17095 28
13677 17096 17097 28
13678 17096 17098 28
13679 17096 17099 28
13680 17096 17100 28
13681 17101 17102 28
13682 17101 17103 28
13683 17101 17104 28
13684 17101 17105 28
13685 17106 17107 28
13686 17106 17108 28
13687 17106 17109 28
13688 17106 17110 28
13689 17111 17112 28
13690 17111 17113 28
13691 17111 17114 28
13692 17111 17115 28
13693 17116 17117 28
13694 17116 17118 28
13695 17116 17119 28
13696 17116 17120 28
13697 17121 17122 28
13698 17121 17123 28
13699 17121 17124 28
13700 17121 17125 28
13701 17126 17127 28
13702 17126 17128 28
13703 17126 17129 28
13704 17126 17130 28
13705 17131 17132 28
13706 17131 17133 28
13707 17131 17134 28
13708 17131 17135 28
13709 17136 17137 28
13710 17136 17138 28
13711 17136 17139 28
13712 17136 17140 28
13713 17141 17142 28
13714 17141 17143 28
13715 17141 17144 28
13716 17141 17145 28
13717 17146 17147 28
13718 17146 17148 28
13719 17146 17149 28
13720 17146 17150 28
13721 17151 17152 28
13722 17151 17153 28
13723 17151 17154 28
13724 17151 17155 28
13725 17156 17157 28
13726 17156 17158 28
13727 17156 17159 28
13728 17156 17160 28
13729 17161 17162 28
13730 17161 17163 28
13731 17161 17164 28
13732 17161 17165 28
13733 17166 17167 28
13734 17166 17168 28
13735 17166 17169 28
13736 17166 17170 28
13737 17171 17172 28
13738 17171 17173 28
13739 17171 17174 28
13740 17171 17175 28
13741 17176 17177 28
13742 17176 17178 28
13743 17176 17179 28
13744 17176 17180 28
13745 17181 17182 28
13746 17181 17183 28
13747 17181 17184 28
13748 17181 17185 28
13749 17186 17187 28
13750 17186 17188 28
13751 17186 17189 28
13752 17186 17190 28
13753 17191 17192 28
13754 17191 17193 28
13755 17191 17194 28
13756 17191 17195 28
13757 17196 17197 28
13758 17196 17198 28
13759 17196 17199 28
13760 17196 17200 28
13761 17201 17202 28
13762 17201 17203 28
13763 17201 17204 28
13764 17201 17205 28
13765 17206 17207 28
13766 17206 17208 28
13767 17206 17209 28
13768 17206 17210 28
13769 17211 17212 28
13770 17211 17213 28
13771 17211 17214 28
13772 17211 17215 28
13773 17216 17217 28
13774 17216 17218 28
13775 17216 17219 28
13776 17216 17220 28
13777 17221 17222 28
13778 17221 17223 28
13779 17221 17224 28
13780 17221 17225 28
13781 17226 17227 28
13782 17226 17228 28
13783 17226 17229 28
13784 17226 17230 28
13785 17231 17232 28
13786 17231 17233 28
13787 17231 17234 28
13788 17231 17235 28
13789 17236 17237 28
13790 17236 17238 28
13791 17236 17239 28
13792 17236 17240 28
13793 17241 17242 28
13794 17241 17243 28
13795 17241 17244 28
13796 17241 17245 28
13797 17246 17247 28
13798 17246 17248 28
13799 17246 17249 28
13800 17246 17250 28
13801 17251 17252 28
13802 17251 17253 28
13803 17251 17254 28
13804 17251 17255 28
13805 17256 17257 28
13806 17256 17258 28
13807 17256 17259 28
13808 17256 17260 28
13809 17261 17262 28
13810 17261 17263 28
13811 17261 17264 28
13812 17261 17265 28
13813 17266 17267 28
13814 17266 17268 28
13815 17266 17269 28
13816 17266 17270 28
13817 17271 17272 28
13818 17271 17273 28
13819 17271 17274 28
13820 17271 17275 28
13821 17276 17277 28
13822 17276 17278 28
13823 17276 17279 28
13824 17276 17280 28
13825 17281 17282 28
13826 17281 17283 28
13827 17281 17284 28
13828 17281 17285 28
13829 17286 17287 28
13830 17286 17288 28
13831 17286 17289 28
13832 17286 17290 28
13833 17291 17292 28
13834 17291 17293 28
13835 17291 17294 28
13836 17291 17295 28
13837 17296 17297 28
13838 17296 17298 28
13839 17296 17299 28
13840 17296 17300 28
13841 17301 17302 28
13842 17301 17303 28
13843 17301 17304 28
13844 17301 17305 28
13845 17306 17307 28
13846 17306 17308 28
13847 17306 17309 28
13848 17306 17310 28
13849 17311 17312 28
13850 17311 17313 28
13851 17311 17314 28
13852 17311 17315 28
13853 17316 17317 28
13854 17316 17318 28
13855 17316 17319 28
13856 17316 17320 28
13857 17321 17322 28
13858 17321 17323 28
13859 17321 17324 28
13860 17321 17325 28
13861 17326 17327 28
13862 17326 17328 28
13863 17326 17329 28
13864 17326 17330 28
13865 17331 17332 28
13866 17331 17333 28
13867 17331 17334 28
13868 17331 17335 28
13869 17336 17337 28
13870 17336 17338 28
13871 17336 17339 28
13872 17336 17340 28
13873 17341 17342 28
13874 17341 17343 28
13875 17341 17344 28
13876 17341 17345 28
13877 17346 17347 28
13878 17346 17348 28
13879 17346 17349 28
13880 17346 17350 28
13881 17351 17352 28
13882 17351 17353 28
13883 17351 17354 28
13884 17351 17355 28
13885 17356 17357 28
13886 17356 17358 28
13887 17356 17359 28
13888 17356 17360 28
13889 17361 17362 28
13890 17361 17363 28
13891 17361 17364 28
13892 17361 17365 28
13893 17366 17367 28
13894 17366 17368 28
13895 17366 17369 28
13896 17366 17370 28
13897 17371 17372 28
13898 17371 17373 28
13899 17371 17374 28
13900 17371 17375 28
13901 17376 17377 28
13902 17376 17378 28
13903 17376 17379 28
13904 17376 17380 28
13905 17381 17382 28
13906 17381 17383 28
13907 17381 17384 28
13908 17381 17385 28
13909 17386 17387 28
13910 17386 17388 28
13911 17386 17389 28
13912 17386 17390 28
13913 17391 17392 28
13914 17391 17393 28
13915 17391 17394 28
13916 17391 17395 28
13917 17396 17397 28
13918 17396 17398 28
13919 17396 17399 28
13920 17396 17400 28
13921 17401 17402 28
13922 17401 17403 28
13923 17401 17404 28
13924 17401 17405 28
13925 17406 17407 28
13926 17406 17408 28
13927 17406 17409 28
13928 17406 17410 28
13929 17411 17412 28
13930 17411 17413 28
13931 17411 17414 28
13932 17411 17415 28
13933 17416 17417 28
13934 17416 17418 28
13935 17416 17419 28
13936 17416 17420 28
13937 17421 17422 28
13938 17421 17423 28
13939 17421 17424 28
13940 17421 17425 28
13941 17426 17427 28
13942 17426 17428 28
13943 17426 17429 28
13944 17426 17430 28
13945 17431 17432 28
13946 17431 17433 28
13947 17431 17434 28
13948 17431 17435 28
13949 17436 17437 28
13950 17436 17438 28
13951 17436 17439 28
13952 17436 17440 28
13953 17441 17442 28
13954 17441 17443 28
13955 17441 17444 28
13956 17441 17445 28
13957 17446 17447 28
13958 17446 17448 28
13959 17446 17449 28
13960 17446 17450 28
13961 17451 17452 28
13962 17451 17453 28
13963 17451 17454 28
13964 17451 17455 28
13965 17456 17457 28
13966 17456 17458 28
13967 17456 17459 28
13968 17456 17460 28
13969 17461 17462 28
13970 17461 17463 28
13971 17461 17464 28
13972 17461 17465 28
13973 17466 17467 28
13974 17466 17468 28
13975 17466 17469 28
13976 17466 17470 28
13977 17471 17472 28
13978 17471 17473 28
13979 17471 17474 28
13980 17471 17475 28
13981 17476 17477 28
13982 17476 17478 28
13983 17476 17479 28
13984 17476 17480 28
13985 17481 17482 28
13986 17481 17483 28
13987 17481 17484 28
13988 17481 17485 28
13989 17486 17487 28
13990 17486 17488 28
13991 17486 17489 28
13992 17486 17490 28
13993 17491 17492 28
13994 17491 17493 28
13995 17491 17494 28
13996 17491 17495 28
13997 17496 17497 28
13998 17496 17498 28
13999 17496 17499 28
14000 17496 17500 28
14001 17501 17502 28
14002 17501 17503 28
14003 17501 17504 28
14004 17501 17505 28
14005 17506 17507 28
14006 17506 17508 28
14007 17506 17509 28
14008 17506 17510 28
14009 17511 17512 28
14010 17511 17513 28
14011 17511 17514 28
14012 17511 17515 28
14013 17516 17517 28
14014 17516 17518 28
14015 17516 17519 28
14016 17516 17520 28
14017 17521 17522 28
14018 17521 17523 28
14019 17521 17524 28
14020 17521 17525 28
14021 17526 17527 28
14022 17526 17528 28
14023 17526 17529 28
14024 17526 17530 28
14025 17531 17532 28
14026 17531 17533 28
14027 17531 17534 28
14028 17531 17535 28
14029 17536 17537 28
14030 17536 17538 28
14031 17536 17539 28
14032 17536 17540 28
14033 17541 17542 28
14034 17541 17543 28
14035 17541 17544 28
14036 17541 17545 28
14037 17546 17547 28
14038 17546 17548 28
14039 17546 17549 28
14040 17546 17550 28
14041 17551 17552 28
14042 17551 17553 28
14043 17551 17554 28
14044 17551 17555 28
14045 17556 17557 28
14046 17556 17558 28
14047 17556 17559 28
14048 17556 17560 28
14049 17561 17562 28
14050 17561 17563 28
14051 17561 17564 28
14052 17561 17565 28
14053 17566 17567 28
14054 17566 17568 28
14055 17566 17569 28
14056 17566 17570 28
14057 17571 17572 28
14058 17571 17573 28
14059 17571 17574 28
14060 17571 17575 28
14061 17576 17577 28
14062 17576 17578 28
14063 17576 17579 28
14064 17576 17580 28
14065 17581 17582 28
14066 17581 17583 28
14067 17581 17584 28
14068 17581 17585 28
14069 17586 17587 28
14070 17586 17588 28
14071 17586 17589 28
14072 17586 17590 28
14073 17591 17592 28
14074 17591 17593 28
14075 17591 17594 28
14076 17591 17595 28
14077 17596 17597 28
14078 17596 17598 28
14079 17596 17599 28
14080 17596 17600 28
14081 17601 17602 28
14082 17601 17603 28
14083 17601 17604 28
14084 17601 17605 28
14085 17606 17607 28
14086 17606 17608 28
14087 17606 17609 28
14088 17606 17610 28
14089 17611 17612 28
14090 17611 17613 28
14091 17611 17614 28
14092 17611 17615 28
14093 17616 17617 28
14094 17616 17618 28
14095 17616 17619 28
14096 17616 17620 28
14097 17621 17622 28
14098 17621 17623 28
14099 17621 17624 28
14100 17621 17625 28
14101 17626 17627 28
14102 17626 17628 28
14103 17626 17629 28
14104 17626 17630 28
14105 17631 17632 28
14106 17631 17633 28
14107 17631 17634 28
14108 17631 17635 28
14109 17636 17637 28
14110 17636 17638 28
14111 17636 17639 28
14112 17636 17640 28
14113 17641 17642 28
14114 17641 17643 28
14115 17641 17644 28
14116 17641 17645 28
14117 17646 17647 28
14118 17646 17648 28
14119 17646 17649 28
14120 17646 17650 28
14121 17651 17652 28
14122 17651 17653 28
14123 17651 17654 28
14124 17651 17655 28
14125 17656 17657 28
14126 17656 17658 28
14127 17656 17659 28
14128 17656 17660 28
14129 17661 17662 28
14130 17661 17663 28
14131 17661 17664 28
14132 17661 17665 28
14133 17666 17667 28
14134 17666 17668 28
14135 17666 17669 28
14136 17666 17670 28
14137 17671 17672 28
14138 17671 17673 28
14139 17671 17674 28
14140 17671 17675 28
14141 17676 17677 28
14142 17676 17678 28
14143 17676 17679 28
14144 17676 17680 28
14145 17681 17682 28
14146 17681 17683 28
14147 17681 17684 28
14148 17681 17685 28
14149 17686 17687 28
14150 17686 17688 28
14151 17686 17689 28
14152 17686 17690 28
14153 17691 17692 28
14154 17691 17693 28
14155 17691 17694 28
14156 17691 17695 28
14157 17696 17697 28
14158 17696 17698 28
14159 17696 17699 28
14160 17696 17700 28
14161 17701 17702 28
14162 17701 17703 28
14163 17701 17704 28
14164 17701 17705 28
14165 17706 17707 28
14166 17706 17708 28
14167 17706 17709 28
14168 17706 17710 28
14169 17711 17712 28
14170 17711 17713 28
14171 17711 17714 28
14172 17711 17715 28
14173 17716 17717 28
14174 17716 17718 28
14175 17716 17719 28
14176 17716 17720 28
14177 17721 17722 28
14178 17721 17723 28
14179 17721 17724 28
14180 17721 17725 28
14181 17726 17727 28
14182 17726 17728 28
14183 17726 17729 28
14184 17726 17730 28
14185 17731 17732 28
14186 17731 17733 28
14187 17731 17734 28
14188 17731 17735 28
14189 17736 17737 28
14190 17736 17738 28
14191 17736 17739 28
14192 17736 17740 28
14193 17741 17742 28
14194 17741 17743 28
14195 17741 17744 28
14196 17741 17745 28
14197 17746 17747 28
14198 17746 17748 28
14199 17746 17749 28
14200 17746 17750 28
14201 17751 17752 28
14202 17751 17753 28
14203 17751 17754 28
14204 17751 17755 28
14205 17756 17757 28
14206 17756 17758 28
14207 17756 17759 28
14208 17756 17760 28
14209 17761 17762 28
14210 17761 17763 28
14211 17761 17764 28
14212 17761 17765 28
14213 17766 17767 28
14214 17766 17768 28
14215 17766 17769 28
14216 17766 17770 28
14217 17771 17772 28
14218 17771 17773 28
14219 17771 17774 28
14220 17771 17775 28
14221 17776 17777 28
14222 17776 17778 28
14223 17776 17779 28
14224 17776 17780 28
14225 17781 17782 28
14226 17781 17783 28
14227 17781 17784 28
14228 17781 17785 28
14229 17786 17787 28
14230 17786 17788 28
14231 17786 17789 28
14232 17786 17790 28
14233 17791 17792 28
14234 17791 17793 28
14235 17791 17794 28
14236 17791 17795 28
14237 17796 17797 28
14238 17796 17798 28
14239 17796 17799 28
14240 17796 17800 28
14241 17801 17802 28
14242 17801 17803 28
14243 17801 17804 28
14244 17801 17805 28
14245 17806 17807 28
14246 17806 17808 28
14247 17806 17809 28
14248 17806 17810 28
14249 17811 17812 28
14250 17811 17813 28
14251 17811 17814 28
14252 17811 17815 28
14253 17816 17817 28
14254 17816 17818 28
14255 17816 17819 28
14256 17816 17820 28
14257 17821 17822 28
14258 17821 17823 28
14259 17821 17824 28
14260 17821 17825 28
14261 17826 17827 28
14262 17826 17828 28
14263 17826 17829 28
14264 17826 17830 28
14265 17831 17832 28
14266 17831 17833 28
14267 17831 17834 28
14268 17831 17835 28
14269 17836 17837 28
14270 17836 17838 28
14271 17836 17839 28
14272 17836 17840 28
14273 17841 17842 28
14274 17841 17843 28
14275 17841 17844 28
14276 17841 17845 28
14277 17846 17847 28
14278 17846 17848 28
14279 17846 17849 28
14280 17846 17850 28
14281 17851 17852 28
14282 17851 17853 28
14283 17851 17854 28
14284 17851 17855 28
14285 17856 17857 28
14286 17856 17858 28
14287 17856 17859 28
14288 17856 17860 28
14289 17861 17862 28
14290 17861 17863 28
14291 17861 17864 28
14292 17861 17865 28
14293 17866 17867 28
14294 17866 17868 28
14295 17866 17869 28
14296 17866 17870 28
14297 17871 17872 28
14298 17871 17873 28
14299 17871 17874 28
14300 17871 17875 28
14301 17876 17877 28
14302 17876 17878 28
14303 17876 17879 28
14304 17876 17880 28
14305 17881 17882 28
14306 17881 17883 28
14307 17881 17884 28
14308 17881 17885 28
14309 17886 17887 28
14310 17886 17888 28
14311 17886 17889 28
14312 17886 17890 28
14313 17891 17892 28
14314 17891 17893 28
14315 17891 17894 28
14316 17891 17895 28
14317 17896 17897 28
14318 17896 17898 28
14319 17896 17899 28
14320 17896 17900 28
14321 17901 17902 28
14322 17901 17903 28
14323 17901 17904 28
14324 17901 17905 28
14325 17906 17907 28
14326 17906 17908 28
14327 17906 17909 28
14328 17906 17910 28
14329 17911 17912 28
14330 17911 17913 28
14331 17911 17914 28
14332 17911 17915 28
14333 17916 17917 28
14334 17916 17918 28
14335 17916 17919 28
14336 17916 17920 28
14337 17921 17922 28
14338 17921 17923 28
14339 17921 17924 28
14340 17921 17925 28
14341 17926 17927 28
14342 17926 17928 28
14343 17926 17929 28
14344 17926 17930 28
14345 17931 17932 28
14346 17931 17933 28
14347 17931 17934 28
14348 17931 17935 28
14349 17936 17937 28
14350 17936 17938 28
14351 17936 17939 28
14352 17936 17940 28
14353 17941 17942 28
14354 17941 17943 28
14355 17941 17944 28
14356 17941 17945 28
14357 17946 17947 28
14358 17946 17948 28
14359 17946 17949 28
14360 17946 17950 28
14361 17951 17952 28
14362 17951 17953 28
14363 17951 17954 28
14364 17951 17955 28
14365 17956 17957 28
14366 17956 17958 28
14367 17956 17959 28
14368 17956 17960 28
14369 17961 17962 28
14370 17961 17963 28
14371 17961 17964 28
14372 17961 17965 28
14373 17966 17967 28
14374 17966 17968 28
14375 17966 17969 28
14376 17966 17970 28
14377 17971 17972 28
14378 17971 17973 28
14379 17971 17974 28
14380 17971 17975 28
14381 17976 17977 28
14382 17976 17978 28
14383 17976 17979 28
14384 17976 17980 28
14385 17981 17982 28
14386 17981 17983 28
14387 17981 17984 28
14388 17981 17985 28
14389 17986 17987 28
14390 17986 17988 28
14391 17986 17989 28
14392 17986 17990 28
14393 17991 17992 28
14394 17991 17993 28
14395 17991 17994 28
14396 17991 17995 28
14397 17996 17997 28
14398 17996 17998 28
14399 17996 17999 28
14400 17996 18000 28
14401 18001 18002 28
14402 18001 18003 28
14403 18001 18004 28
14404 18001 18005 28
14405 18006 18007 28
14406 18006 18008 28
14407 18006 18009 28
14408 18006 18010 28
14409 18011 18012 28
14410 18011 18013 28
14411 18011 18014 28
14412 18011 18015 28
14413 18016 18017 28
14414 18016 18018 28
14415 18016 18019 28
14416 18016 18020 28
14417 18021 18022 28
14418 18021 18023 28
14419 18021 18024 28
14420 18021 18025 28
14421 18026 18027 28
14422 18026 18028 28
14423 18026 18029 28
14424 18026 18030 28
14425 18031 18032 28
14426 18031 18033 28
14427 18031 18034 28
14428 18031 18035 28
14429 18036 18037 28
14430 18036 18038 28
14431 18036 18039 28
14432 18036 18040 28
14433 18041 18042 28
14434 18041 18043 28
14435 18041 18044 28
14436 18041 18045 28
14437 18046 18047 28
14438 18046 18048 28
14439 18046 18049 28
14440 18046 18050 28
14441 18051 18052 28
14442 18051 18053 28
14443 18051 18054 28
14444 18051 18055 28
14445 18056 18057 28
14446 18056 18058 28
14447 18056 18059 28
14448 18056 18060 28
14449 18061 18062 28
14450 18061 18063 28
14451 18061 18064 28
14452 18061 18065 28
14453 18066 18067 28
14454 18066 18068 28
14455 18066 18069 28
14456 18066 18070 28
14457 18071 18072 28
14458 18071 18073 28
14459 18071 18074 28
14460 18071 18075 28
14461 18076 18077 28
14462 18076 18078 28
14463 18076 18079 28
14464 18076 18080 28
14465 18081 18082 28
14466 18081 18083 28
14467 18081 18084 28
14468 18081 18085 28
14469 18086 18087 28
14470 18086 18088 28
14471 18086 18089 28
14472 18086 18090 28
14473 18091 18092 28
14474 18091 18093 28
14475 18091 18094 28
14476 18091 18095 28
14477 18096 18097 28
14478 18096 18098 28
14479 18096 18099 28
14480 18096 18100 28
14481 18101 18102 28
14482 18101 18103 28
14483 18101 18104 28
14484 18101 18105 28
14485 18106 18107 28
14486 18106 18108 28
14487 18106 18109 28
14488 18106 18110 28
14489 18111 18112 28
14490 18111 18113 28
14491 18111 18114 28
14492 18111 18115 28
14493 18116 18117 28
14494 18116 18118 28
14495 18116 18119 28
14496 18116 18120 28
14497 18121 18122 28
14498 18121 18123 28
14499 18121 18124 28
14500 18121 18125 28
14501 18126 18127 28
14502 18126 18128 28
14503 18126 18129 28
14504 18126 18130 28
14505 18131 18132 28
14506 18131 18133 28
14507 18131 18134 28
14508 18131 18135 28
14509 18136 18137 28
14510 18136 18138 28
14511 18136 18139 28
14512 18136 18140 28
14513 18141 18142 28
14514 18141 18143 28
14515 18141 18144 28
14516 18141 18145 28
14517 18146 18147 28
14518 18146 18148 28
14519 18146 18149 28
14520 18146 18150 28
14521 18151 18152 28
14522 18151 18153 28
14523 18151 18154 28
14524 18151 18155 28
14525 18156 18157 28
14526 18156 18158 28
14527 18156 18159 28
14528 18156 18160 28
14529 18161 18162 28
14530 18161 18163 28
14531 18161 18164 28
14532 18161 18165 28
14533 18166 18167 28
14534 18166 18168 28
14535 18166 18169 28
14536 18166 18170 28
14537 18171 18172 28
14538 18171 18173 28
14539 18171 18174 28
14540 18171 18175 28
14541 18176 18177 28
14542 18176 18178 28
14543 18176 18179 28
14544 18176 18180 28
14545 18181 18182 28
14546 18181 18183 28
14547 18181 18184 28
14548 18181 18185 28
14549 18186 18187 28
14550 18186 18188 28
14551 18186 18189 28
14552 18186 18190 28
14553 18191 18192 28
14554 18191 18193 28
14555 18191 18194 28
14556 18191 18195 28
14557 18196 18197 28
14558 18196 18198 28
14559 18196 18199 28
14560 18196 18200 28
14561 18201 18202 28
14562 18201 18203 28
14563 18201 18204 28
14564 18201 18205 28
14565 18206 18207 28
14566 18206 18208 28
14567 18206 18209 28
14568 18206 18210 28
14569 18211 18212 28
14570 18211 18213 28
14571 18211 18214 28
14572 18211 18215 28
14573 18216 18217 28
14574 18216 18218 28
14575 18216 18219 28
14576 18216 18220 28
14577 18221 18222 28
14578 18221 18223 28
14579 18221 18224 28
14580 18221 18225 28
14581 18226 18227 28
14582 18226 18228 28
14583 18226 18229 28
14584 18226 18230 28
14585 18231 18232 28
14586 18231 18233 28
14587 18231 18234 28
14588 18231 18235 28
14589 18236 18237 28
14590 18236 18238 28
14591 18236 18239 28
14592 18236 18240 28
14593 18241 18242 28
14594 18241 18243 28
14595 18241 18244 28
14596 18241 18245 28
14597 18246 18247 28
14598 18246 18248 28
14599 18246 18249 28
14600 18246 18250 28
14601 18251 18252 28
14602 18251 18253 28
14603 18251 18254 28
14604 18251 18255 28
14605 18256 18257 28
14606 18256 18258 28
14607 18256 18259 28
14608 18256 18260 28
14609 18261 18262 28
14610 18261 18263 28
14611 18261 18264 28
14612 18261 18265 28
14613 18266 18267 28
14614 18266 18268 28
14615 18266 18269 28
14616 18266 18270 28
14617 18271 18272 28
14618 18271 18273 28
14619 18271 18274 28
14620 18271 18275 28
14621 18276 18277 28
14622 18276 18278 28
14623 18276 18279 28
14624 18276 18280 28
14625 18281 18282 28
14626 18281 18283 28
14627 18281 18284 28
14628 18281 18285 28
14629 18286 18287 28
14630 18286 18288 28
14631 18286 18289 28
14632 18286 18290 28
14633 18291 18292 28
14634 18291 18293 28
14635 18291 18294 28
14636 18291 18295 28
14637 18296 18297 28
14638 18296 18298 28
14639 18296 18299 28
14640 18296 18300 28
14641 18301 18302 28
14642 18301 18303 28
14643 18301 18304 28
14644 18301 18305 28
14645 18306 18307 28
14646 18306 18308 28
14647 18306 18309 28
14648 18306 18310 28
14649 18311 18312 28
14650 18311 18313 28
14651 18311 18314 28
14652 18311 18315 28
14653 18316 18317 28
14654 18316 18318 28
14655 18316 18319 28
14656 18316 18320 28
14657 18321 18322 28
14658 18321 18323 28
14659 18321 18324 28
14660 18321 18325 28
14661 18326 18327 28
14662 18326 18328 28
14663 18326 18329 28
14664 18326 18330 28
14665 18331 18332 28
14666 18331 18333 28
14667 18331 18334 28
14668 18331 18335 28
14669 18336 18337 28
14670 18336 18338 28
14671 18336 18339 28
14672 18336 18340 28
14673 18341 18342 28
14674 18341 18343 28
14675 18341 18344 28
14676 18341 18345 28
14677 18346 18347 28
14678 18346 18348 28
14679 18346 18349 28
14680 18346 18350 28
14681 18351 18352 28
14682 18351 18353 28
14683 18351 18354 28
14684 18351 18355 28
14685 18356 18357 28
14686 18356 18358 28
14687 18356 18359 28
14688 18356 18360 28
14689 18361 18362 28
14690 18361 18363 28
14691 18361 18364 28
14692 18361 18365 28
14693 18366 18367 28
14694 18366 18368 28
14695 18366 18369 28
14696 18366 18370 28
14697 18371 18372 28
14698 18371 18373 28
14699 18371 18374 28
14700 18371 18375 28
14701 18376 18377 28
14702 18376 18378 28
14703 18376 18379 28
14704 18376 18380 28
14705 18381 18382 28
14706 18381 18383 28
14707 18381 18384 28
14708 18381 18385 28
14709 18386 18387 28
14710 18386 18388 28
14711 18386 18389 28
14712 18386 18390 28
14713 18391 18392 28
14714 18391 18393 28
14715 18391 18394 28
14716 18391 18395 28
14717 18396 18397 28
14718 18396 18398 28
14719 18396 18399 28
14720 18396 18400 28
14721 18401 18402 28
14722 18401 18403 28
14723 18401 18404 28
14724 18401 18405 28
14725 18406 18407 28
14726 18406 18408 28
14727 18406 18409 28
14728 18406 18410 28
14729 18411 18412 28
14730 18411 18413 28
14731 18411 18414 28
14732 18411 18415 28
14733 18416 18417 28
14734 18416 18418 28
14735 18416 18419 28
14736 18416 18420 28
14737 18421 18422 28
14738 18421 18423 28
14739 18421 18424 28
14740 18421 18425 28
14741 18426 18427 28
14742 18426 18428 28
14743 18426 18429 28
14744 18426 18430 28
14745 18431 18432 28
14746 18431 18433 28
14747 18431 18434 28
14748 18431 18435 28
14749 18436 18437 28
14750 18436 18438 28
14751 18436 18439 28
14752 18436 18440 28
14753 18441 18442 28
14754 18441 18443 28
14755 18441 18444 28
14756 18441 18445 28
14757 18446 18447 28
14758 18446 18448 28
14759 18446 18449 28
14760 18446 18450 28
14761 18451 18452 28
14762 18451 18453 28
14763 18451 18454 28
14764 18451 18455 28
14765 18456 18457 28
14766 18456 18458 28
14767 18456 18459 28
14768 18456 18460 28
14769 18461 18462 28
14770 18461 18463 28
14771 18461 18464 28
14772 18461 18465 28
14773 18466 18467 28
14774 18466 18468 28
14775 18466 18469 28
14776 18466 18470 28
14777 18471 18472 28
14778 18471 18473 28
14779 18471 18474 28
14780 18471 18475 28
14781 18476 18477 28
14782 18476 18478 28
14783 18476 18479 28
14784 18476 18480 28
14785 18481 18482 28
14786 18481 18483 28
14787 18481 18484 28
14788 18481 18485 28
14789 18486 18487 28
14790 18486 18488 28
14791 18486 18489 28
14792 18486 18490 28
14793 18491 18492 28
14794 18491 18493 28
14795 18491 18494 28
14796 18491 18495 28
14797 18496 18497 28
14798 18496 18498 28
14799 18496 18499 28
14800 18496 18500 28
14801 18501 18502 28
14802 18501 18503 28
14803 18501 18504 28
14804 18501 18505 28
14805 18506 18507 28
14806 18506 18508 28
14807 18506 18509 28
14808 18506 18510 28
14809 18511 18512 28
14810 18511 18513 28
14811 18511 18514 28
14812 18511 18515 28
14813 18516 18517 28
14814 18516 18518 28
14815 18516 18519 28
14816 18516 18520 28
14817 18521 18522 28
14818 18521 18523 28
14819 18521 18524 28
14820 18521 18525 28
14821 18526 18527 28
14822 18526 18528 28
14823 18526 18529 28
14824 18526 18530 28
14825 18531 18532 28
14826 18531 18533 28
14827 18531 18534 28
14828 18531 18535 28
14829 18536 18537 28
14830 18536 18538 28
14831 18536 18539 28
14832 18536 18540 28
14833 18541 18542 28
14834 18541 18543 28
14835 18541 18544 28
14836 18541 18545 28
14837 18546 18547 28
14838 18546 18548 28
14839 18546 18549 28
14840 18546 18550 28
14841 18551 18552 28
14842 18551 18553 28
14843 18551 18554 28
14844 18551 18555 28
14845 18556 18557 28
14846 18556 18558 28
14847 18556 18559 28
14848 18556 18560 28
14849 18561 18562 28
14850 18561 18563 28
14851 18561 18564 28
14852 18561 18565 28
14853 18566 18567 28
14854 18566 18568 28
14855 18566 18569 28
14856 18566 18570 28
14857 18571 18572 28
14858 18571 18573 28
14859 18571 18574 28
14860 18571 18575 28
14861 18576 18577 28
14862 18576 18578 28
14863 18576 18579 28
14864 18576 18580 28
14865 18581 18582 28
14866 18581 18583 28
14867 18581 18584 28
14868 18581 18585 28
14869 18586 18587 28
14870 18586 18588 28
14871 18586 18589 28
14872 18586 18590 28
14873 18591 18592 28
14874 18591 18593 28
14875 18591 18594 28
14876 18591 18595 28
14877 18596 18597 28
14878 18596 18598 28
14879 18596 18599 28
14880 18596 18600 28
14881 18601 18602 28
14882 18601 18603 28
14883 18601 18604 28
14884 18601 18605 28
14885 18606 18607 28
14886 18606 18608 28
14887 18606 18609 28
14888 18606 18610 28
14889 18611 18612 28
14890 18611 18613 28
14891 18611 18614 28
14892 18611 18615 28
14893 18616 18617 28
14894 18616 18618 28
14895 18616 18619 28
14896 18616 18620 28
14897 18621 18622 28
14898 18621 18623 28
14899 18621 18624 28
14900 18621 18625 28
14901 18626 18627 28
14902 18626 18628 28
14903 18626 18629 28
14904 18626 18630 28
14905 18631 18632 28
14906 18631 18633 28
14907 18631 18634 28
14908 18631 18635 28
14909 18636 18637 28
14910 18636 18638 28
14911 18636 18639 28
14912 18636 18640 28
14913 18641 18642 28
14914 18641 18643 28
14915 18641 18644 28
14916 18641 18645 28
14917 18646 18647 28
14918 18646 18648 28
14919 18646 18649 28
14920 18646 18650 28
14921 18651 18652 28
14922 18651 18653 28
14923 18651 18654 28
14924 18651 18655 28
14925 18656 18657 28
14926 18656 18658 28
14927 18656 18659 28
14928 18656 18660 28
14929 18661 18662 28
14930 18661 18663 28
14931 18661 18664 28
14932 18661 18665 28
14933 18666 18667 28
14934 18666 18668 28
14935 18666 18669 28
14936 18666 18670 28
14937 18671 18672 28
14938 18671 18673 28
14939 18671 18674 28
14940 18671 18675 28
14941 18676 18677 28
14942 18676 18678 28
14943 18676 18679 28
14944 18676 18680 28
14945 18681 18682 28
14946 18681 18683 28
14947 18681 18684 28
14948 18681 18685 28
14949 18686 18687 28
14950 18686 18688 28
14951 18686 18689 28
14952 18686 18690 28
14953 18691 18692 28
14954 18691 18693 28
14955 18691 18694 28
14956 18691 18695 28
14957 18696 18697 28
14958 18696 18698 28
14959 18696 18699 28
14960 18696 18700 28
14961 18701 18702 28
14962 18701 18703 28
14963 18701 18704 28
14964 18701 18705 28
14965 18706 18707 28
14966 18706 18708 28
14967 18706 18709 28
14968 18706 18710 28
14969 18711 18712 28
14970 18711 18713 28
14971 18711 18714 28
14972 18711 18715 28
14973 18716 18717 28
14974 18716 18718 28
14975 18716 18719 28
14976 18716 18720 28
14977 18721 18722 28
14978 18721 18723 28
14979 18721 18724 28
14980 18721 18725 28
14981 18726 18727 28
14982 18726 18728 28
14983 18726 18729 28
14984 18726 18730 28
14985 18731 18732 28
14986 18731 18733 28
14987 18731 18734 28
14988 18731 18735 28
14989 18736 18737 28
14990 18736 18738 28
14991 18736 18739 28
14992 18736 18740 28
14993 18741 18742 28
14994 18741 18743 28
14995 18741 18744 28
14996 18741 18745 28
14997 18746 18747 28
14998 18746 18748 28
14999 18746 18749 28
15000 18746 18750 28
15001 18751 18752 28
15002 18751 18753 28
15003 18751 18754 28
15004 18751 18755 28
15005 18756 18757 28
15006 18756 18758 28
15007 18756 18759 28
15008 18756 18760 28
15009 18761 18762 28
15010 18761 18763 28
15011 18761 18764 28
15012 18761 18765 28
15013 18766 18767 28
15014 18766 18768 28
15015 18766 18769 28
15016 18766 18770 28
15017 18771 18772 28
15018 18771 18773 28
15019 18771 18774 28
15020 18771 18775 28
15021 18776 18777 28
15022 18776 18778 28
15023 18776 18779 28
15024 18776 18780 28
15025 18781 18782 28
15026 18781 18783 28
15027 18781 18784 28
15028 18781 18785 28
15029 18786 18787 28
15030 18786 18788 28
15031 18786 18789 28
15032 18786 18790 28
15033 18791 18792 28
15034 18791 18793 28
15035 18791 18794 28
15036 18791 18795 28
15037 18796 18797 28
15038 18796 18798 28
15039 18796 18799 28
15040 18796 18800 28
15041 18801 18802 28
15042 18801 18803 28
15043 18801 18804 28
15044 18801 18805 28
15045 18806 18807 28
15046 18806 18808 28
15047 18806 18809 28
15048 18806 18810 28
15049 18811 18812 28
15050 18811 18813 28
15051 18811 18814 28
15052 18811 18815 28
15053 18816 18817 28
15054 18816 18818 28
15055 18816 18819 28
15056 18816 18820 28
15057 18821 18822 28
15058 18821 18823 28
15059 18821 18824 28
15060 18821 18825 28
15061 18826 18827 28
15062 18826 18828 28
15063 18826 18829 28
15064 18826 18830 28
15065 18831 18832 28
15066 18831 18833 28
15067 18831 18834 28
15068 18831 18835 28
15069 18836 18837 28
15070 18836 18838 28
15071 18836 18839 28
15072 18836 18840 28
15073 18841 18842 28
15074 18841 18843 28
15075 18841 18844 28
15076 18841 18845 28
15077 18846 18847 28
15078 18846 18848 28
15079 18846 18849 28
15080 18846 18850 28
15081 18851 18852 28
15082 18851 18853 28
15083 18851 18854 28
15084 18851 18855 28
15085 18856 18857 28
15086 18856 18858 28
15087 18856 18859 28
15088 18856 18860 28
15089 18861 18862 28
15090 18861 18863 28
15091 18861 18864 28
15092 18861 18865 28
15093 18866 18867 28
15094 18866 18868 28
15095 18866 18869 28
15096 18866 18870 28
15097 18871 18872 28
15098 18871 18873 28
15099 18871 18874 28
15100 18871 18875 28
15101 18876 18877 28
15102 18876 18878 28
15103 18876 18879 28
15104 18876 18880 28
15105 18881 18882 28
15106 18881 18883 28
15107 18881 18884 28
15108 18881 18885 28
15109 18886 18887 28
15110 18886 18888 28
15111 18886 18889 28
15112 18886 18890 28
15113 18891 18892 28
15114 18891 18893 28
15115 18891 18894 28
15116 18891 18895 28
15117 18896 18897 28
15118 18896 18898 28
15119 18896 18899 28
15120 18896 18900 28
15121 18901 18902 28
15122 18901 18903 28
15123 18901 18904 28
15124 18901 18905 28
15125 18906 18907 28
15126 18906 18908 28
15127 18906 18909 28
15128 18906 18910 28
15129 18911 18912 28
15130 18911 18913 28
15131 18911 18914 28
15132 18911 18915 28
15133 18916 18917 28
15134 18916 18918 28
15135 18916 18919 28
15136 18916 18920 28
15137 18921 18922 28
15138 18921 18923 28
15139 18921 18924 28
15140 18921 18925 28
15141 18926 18927 28
15142 18926 18928 28
15143 18926 18929 28
15144 18926 18930 28
15145 18931 18932 28
15146 18931 18933 28
15147 18931 18934 28
15148 18931 18935 28
15149 18936 18937 28
15150 18936 18938 28
15151 18936 18939 28
15152 18936 18940 28
15153 18941 18942 28
15154 18941 18943 28
15155 18941 18944 28
15156 18941 18945 28
15157 18946 18947 28
15158 18946 18948 28
15159 18946 18949 28
15160 18946 18950 28
15161 18951 18952 28
15162 18951 18953 28
15163 18951 18954 28
15164 18951 18955 28
15165 18956 18957 28
15166 18956 18958 28
15167 18956 18959 28
15168 18956 18960 28
15169 18961 18962 28
15170 18961 18963 28
15171 18961 18964 28
15172 18961 18965 28
15173 18966 18967 28
15174 18966 18968 28
15175 18966 18969 28
15176 18966 18970 28
15177 18971 18972 28
15178 18971 18973 28
15179 18971 18974 28
15180 18971 18975 28
15181 18976 18977 28
15182 18976 18978 28
15183 18976 18979 28
15184 18976 18980 28
15185 18981 18982 28
15186 18981 18983 28
15187 18981 18984 28
15188 18981 18985 28
15189 18986 18987 28
15190 18986 18988 28
15191 18986 18989 28
15192 18986 18990 28
15193 18991 18992 28
15194 18991 18993 28
15195 18991 18994 28
15196 18991 18995 28
15197 18996 18997 28
15198 18996 18998 28
15199 18996 18999 28
15200 18996 19000 28
15201 19001 19002 28
15202 19001 19003 28
15203 19001 19004 28
15204 19001 19005 28
15205 19006 19007 28
15206 19006 19008 28
15207 19006 19009 28
15208 19006 19010 28
15209 19011 19012 28
15210 19011 19013 28
15211 19011 19014 28
15212 19011 19015 28
15213 19016 19017 28
15214 19016 19018 28
15215 19016 19019 28
15216 19016 19020 28
15217 19021 19022 28
15218 19021 19023 28
15219 19021 19024 28
15220 19021 19025 28
15221 19026 19027 28
15222 19026 19028 28
15223 19026 19029 28
15224 19026 19030 28
15225 19031 19032 28
15226 19031 19033 28
15227 19031 19034 28
15228 19031 19035 28
15229 19036 19037 28
15230 19036 19038 28
15231 19036 19039 28
15232 19036 19040 28
15233 19041 19042 28
15234 19041 19043 28
15235 19041 19044 28
15236 19041 19045 28
15237 19046 19047 28
15238 19046 19048 28
15239 19046 19049 28
15240 19046 19050 28
15241 19051 19052 28
15242 19051 19053 28
15243 19051 19054 28
15244 19051 19055 28
15245 19056 19057 28
15246 19056 19058 28
15247 19056 19059 28
15248 19056 19060 28
15249 19061 19062 28
15250 19061 19063 28
15251 19061 19064 28
15252 19061 19065 28
15253 19066 19067 28
15254 19066 19068 28
15255 19066 19069 28
15256 19066 19070 28
15257 19071 19072 28
15258 19071 19073 28
15259 19071 19074 28
15260 19071 19075 28
15261 19076 19077 28
15262 19076 19078 28
15263 19076 19079 28
15264 19076 19080 28
15265 19081 19082 28
15266 19081 19083 28
15267 19081 19084 28
15268 19081 19085 28
15269 19086 19087 28
15270 19086 19088 28
15271 19086 19089 28
15272 19086 19090 28
15273 19091 19092 28
15274 19091 19093 28
15275 19091 19094 28
15276 19091 19095 28
15277 19096 19097 28
15278 19096 19098 28
15279 19096 19099 28
15280 19096 19100 28
15281 19101 19102 28
15282 19101 19103 28
15283 19101 19104 28
15284 19101 19105 28
15285 19106 19107 28
15286 19106 19108 28
15287 19106 19109 28
15288 19106 19110 28
15289 19111 19112 28
15290 19111 19113 28
15291 19111 19114 28
15292 19111 19115 28
15293 19116 19117 28
15294 19116 19118 28
15295 19116 19119 28
15296 19116 19120 28
15297 19121 19122 28
15298 19121 19123 28
15299 19121 19124 28
15300 19121 19125 28
15301 19126 19127 28
15302 19126 19128 28
15303 19126 19129 28
15304 19126 19130 28
15305 19131 19132 28
15306 19131 19133 28
15307 19131 19134 28
15308 19131 19135 28
15309 19136 19137 28
15310 19136 19138 28
15311 19136 19139 28
15312 19136 19140 28
15313 19141 19142 28
15314 19141 19143 28
15315 19141 19144 28
15316 19141 19145 28
15317 19146 19147 28
15318 19146 19148 28
15319 19146 19149 28
15320 19146 19150 28
15321 19151 19152 28
15322 19151 19153 28
15323 19151 19154 28
15324 19151 19155 28
15325 19156 19157 28
15326 19156 19158 28
15327 19156 19159 28
15328 19156 19160 28
15329 19161 19162 28
15330 19161 19163 28
15331 19161 19164 28
15332 19161 19165 28
15333 19166 19167 28
15334 19166 19168 28
15335 19166 19169 28
15336 19166 19170 28
15337 19171 19172 28
15338 19171 19173 28
15339 19171 19174 28
15340 19171 19175 28
15341 19176 19177 28
15342 19176 19178 28
15343 19176 19179 28
15344 19176 19180 28
15345 19181 19182 28
15346 19181 19183 28
15347 19181 19184 28
15348 19181 19185 28
15349 19186 19187 28
15350 19186 19188 28
15351 19186 19189 28
15352 19186 19190 28
15353 19191 19192 28
15354 19191 19193 28
15355 19191 19194 28
15356 19191 19195 28
15357 19196 19197 28
15358 19196 19198 28
15359 19196 19199 28
15360 19196 19200 28
15361 19201 19202 28
15362 19201 19203 28
15363 19201 19204 28
15364 19201 19205 28
15365 19206 19207 28
15366 19206 19208 28
15367 19206 19209 28
15368 19206 19210 28
15369 19211 19212 28
15370 19211 19213 28
15371 19211 19214 28
15372 19211 19215 28
15373 19216 19217 28
15374 19216 19218 28
15375 19216 19219 28
15376 19216 19220 28
15377 19221 19222 28
15378 19221 19223 28
15379 19221 19224 28
15380 19221 19225 28
15381 19226 19227 28
15382 19226 19228 28
15383 19226 19229 28
15384 19226 19230 28
15385 19231 19232 28
15386 19231 19233 28
15387 19231 19234 28
15388 19231 19235 28
15389 19236 19237 28
15390 19236 19238 28
15391 19236 19239 28
15392 19236 19240 28
15393 19241 19242 28
15394 19241 19243 28
15395 19241 19244 28
15396 19241 19245 28
15397 19246 19247 28
15398 19246 19248 28
15399 19246 19249 28
15400 19246 19250 28
15401 19251 19252 28
15402 19251 19253 28
15403 19251 19254 28
15404 19251 19255 28
15405 19256 19257 28
15406 19256 19258 28
15407 19256 19259 28
15408 19256 19260 28
15409 19261 19262 28
15410 19261 19263 28
15411 19261 19264 28
15412 19261 19265 28
15413 19266 19267 28
15414 19266 19268 28
15415 19266 19269 28
15416 19266 19270 28
15417 19271 19272 28
15418 19271 19273 28
15419 19271 19274 28
15420 19271 19275 28
15421 19276 19277 28
15422 19276 19278 28
15423 19276 19279 28
15424 19276 19280 28
15425 19281 19282 28
15426 19281 19283 28
15427 19281 19284 28
15428 19281 19285 28
15429 19286 19287 28
15430 19286 19288 28
15431 19286 19289 28
15432 19286 19290 28
15433 19291 19292 28
15434 19291 19293 28
15435 19291 19294 28
15436 19291 19295 28
15437 19296 19297 28
15438 19296 19298 28
15439 19296 19299 28
15440 19296 19300 28
15441 19301 19302 28
15442 19301 19303 28
15443 19301 19304 28
15444 19301 19305 28
15445 19306 19307 28
15446 19306 19308 28
15447 19306 19309 28
15448 19306 19310 28
15449 19311 19312 28
15450 19311 19313 28
15451 19311 19314 28
15452 19311 19315 28
15453 19316 19317 28
15454 19316 19318 28
15455 19316 19319 28
15456 19316 19320 28
15457 19321 19322 28
15458 19321 19323 28
15459 19321 19324 28
15460 19321 19325 28
15461 19326 19327 28
15462 19326 19328 28
15463 19326 19329 28
15464 19326 19330 28
15465 19331 19332 28
15466 19331 19333 28
15467 19331 19334 28
15468 19331 19335 28
15469 19336 19337 28
15470 19336 19338 28
15471 19336 19339 28
15472 19336 19340 28
15473 19341 19342 28
15474 19341 19343 28
15475 19341 19344 28
15476 19341 19345 28
15477 19346 19347 28
15478 19346 19348 28
15479 19346 19349 28
15480 19346 19350 28
15481 19351 19352 28
15482 19351 19353 28
15483 19351 19354 28
15484 19351 19355 28
15485 19356 19357 28
15486 19356 19358 28
15487 19356 19359 28
15488 19356 19360 28
15489 19361 19362 28
15490 19361 19363 28
15491 19361 19364 28
15492 19361 19365 28
15493 19366 19367 28
15494 19366 19368 28
15495 19366 19369 28
15496 19366 19370 28
15497 19371 19372 28
15498 19371 19373 28
15499 19371 19374 28
15500 19371 19375 28
15501 19376 19377 28
15502 19376 19378 28
15503 19376 19379 28
15504 19376 19380 28
15505 19381 19382 28
15506 19381 19383 28
15507 19381 19384 28
15508 19381 19385 28
15509 19386 19387 28
15510 19386 19388 28
15511 19386 19389 28
15512 19386 19390 28
15513 19391 19392 28
15514 19391 19393 28
15515 19391 19394 28
15516 19391 19395 28
15517 19396 19397 28
15518 19396 19398 28
15519 19396 19399 28
15520 19396 19400 28
15521 19401 19402 28
15522 19401 19403 28
15523 19401 19404 28
15524 19401 19405 28
15525 19406 19407 28
15526 19406 19408 28
15527 19406 19409 28
15528 19406 19410 28
15529 19411 19412 28
15530 19411 19413 28
15531 19411 19414 28
15532 19411 19415 28
15533 19416 19417 28
15534 19416 19418 28
15535 19416 19419 28
15536 19416 19420 28
15537 19421 19422 28
15538 19421 19423 28
15539 19421 19424 28
15540 19421 19425 28
15541 19426 19427 28
15542 19426 19428 28
15543 19426 19429 28
15544 19426 19430 28
15545 19431 19432 28
15546 19431 19433 28
15547 19431 19434 28
15548 19431 19435 28
15549 19436 19437 28
15550 19436 19438 28
15551 19436 19439 28
15552 19436 19440 28
15553 19441 19442 28
15554 19441 19443 28
15555 19441 19444 28
15556 19441 19445 28
15557 19446 19447 28
15558 19446 19448 28
15559 19446 19449 28
15560 19446 19450 28
15561 19451 19452 28
15562 19451 19453 28
15563 19451 19454 28
15564 19451 19455 28
15565 19456 19457 28
15566 19456 19458 28
15567 19456 19459 28
15568 19456 19460 28
15569 19461 19462 28
15570 19461 19463 28
15571 19461 19464 28
15572 19461 19465 28
15573 19466 19467 28
15574 19466 19468 28
15575 19466 19469 28
15576 19466 19470 28
15577 19471 19472 28
15578 19471 19473 28
15579 19471 19474 28
15580 19471 19475 28
15581 19476 19477 28
15582 19476 19478 28
15583 19476 19479 28
15584 19476 19480 28
15585 19481 19482 28
15586 19481 19483 28
15587 19481 19484 28
15588 19481 19485 28
15589 19486 19487 28
15590 19486 19488 28
15591 19486 19489 28
15592 19486 19490 28
15593 19491 19492 28
15594 19491 19493 28
15595 19491 19494 28
15596 19491 19495 28
15597 19496 19497 28
15598 19496 19498 28
15599 19496 19499 28
15600 19496 19500 28
15601 19501 19502 28
15602 19501 19503 28
15603 19501 19504 28
15604 19501 19505 28
15605 19506 19507 28
15606 19506 19508 28
15607 19506 19509 28
15608 19506 19510 28
15609 19511 19512 28
15610 19511 19513 28
15611 19511 19514 28
15612 19511 19515 28
15613 19516 19517 28
15614 19516 19518 28
15615 19516 19519 28
15616 19516 19520 28
15617 19521 19522 28
15618 19521 19523 28
15619 19521 19524 28
15620 19521 19525 28
15621 19526 19527 28
15622 19526 19528 28
15623 19526 19529 28
15624 19526 19530 28
15625 19531 19532 28
15626 19531 19533 28
15627 19531 19534 28
15628 19531 19535 28
15629 19536 19537 28
15630 19536 19538 28
15631 19536 19539 28
15632 19536 19540 28
15633 19541 19542 28
15634 19541 19543 28
15635 19541 19544 28
15636 19541 19545 28
15637 19546 19547 28
15638 19546 19548 28
15639 19546 19549 28
15640 19546 19550 28
15641 19551 19552 28
15642 19551 19553 28
15643 19551 19554 28
15644 19551 19555 28
15645 19556 19557 28
15646 19556 19558 28
15647 19556 19559 28
15648 19556 19560 28
15649 19561 19562 28
15650 19561 19563 28
15651 19561 19564 28
15652 19561 19565 28
15653 19566 19567 28
15654 19566 19568 28
15655 19566 19569 28
15656 19566 19570 28
15657 19571 19572 28
15658 19571 19573 28
15659 19571 19574 28
15660 19571 19575 28
15661 19576 19577 28
15662 19576 19578 28
15663 19576 19579 28
15664 19576 19580 28
15665 19581 19582 28
15666 19581 19583 28
15667 19581 19584 28
15668 19581 19585 28
15669 19586 19587 28
15670 19586 19588 28
15671 19586 19589 28
15672 19586 19590 28
15673 19591 19592 28
15674 19591 19593 28
15675 19591 19594 28
15676 19591 19595 28
15677 19596 19597 28
15678 19596 19598 28
15679 19596 19599 28
15680 19596 19600 28
15681 19601 19602 28
15682 19601 19603 28
15683 19601 19604 28
15684 19601 19605 28
15685 19606 19607 28
15686 19606 19608 28
15687 19606 19609 28
15688 19606 19610 28
15689 19611 19612 28
15690 19611 19613 28
15691 19611 19614 28
15692 19611 19615 28
15693 19616 19617 28
15694 19616 19618 28
15695 19616 19619 28
15696 19616 19620 28
15697 19621 19622 28
15698 19621 19623 28
15699 19621 19624 28
15700 19621 19625 28
15701 19626 19627 28
15702 19626 19628 28
15703 19626 19629 28
15704 19626 19630 28
15705 19631 19632 28
15706 19631 19633 28
15707 19631 19634 28
15708 19631 19635 28
15709 19636 19637 28
15710 19636 19638 28
15711 19636 19639 28
15712 19636 19640 28
15713 19641 19642 28
15714 19641 19643 28
15715 19641 19644 28
15716 19641 19645 28
15717 19646 19647 28
15718 19646 19648 28
15719 19646 19649 28
15720 19646 19650 28
15721 19651 19652 28
15722 19651 19653 28
15723 19651 19654 28
15724 19651 19655 28
15725 19656 19657 28
15726 19656 19658 28
15727 19656 19659 28
15728 19656 19660 28
15729 19661 19662 28
15730 19661 19663 28
15731 19661 19664 28
15732 19661 19665 28
15733 19666 19667 28
15734 19666 19668 28
15735 19666 19669 28
15736 19666 19670 28
15737 19671 19672 28
15738 19671 19673 28
15739 19671 19674 28
15740 19671 19675 28
15741 19676 19677 28
15742 19676 19678 28
15743 19676 19679 28
15744 19676 19680 28
15745 19681 19682 28
15746 19681 19683 28
15747 19681 19684 28
15748 19681 19685 28
15749 19686 19687 28
15750 19686 19688 28
15751 19686 19689 28
15752 19686 19690 28
15753 19691 19692 28
15754 19691 19693 28
15755 19691 19694 28
15756 19691 19695 28
15757 19696 19697 28
15758 19696 19698 28
15759 19696 19699 28
15760 19696 19700 28
15761 19701 19702 28
15762 19701 19703 28
15763 19701 19704 28
15764 19701 19705 28
15765 19706 19707 28
15766 19706 19708 28
15767 19706 19709 28
15768 19706 19710 28
15769 19711 19712 28
15770 19711 19713 28
15771 19711 19714 28
15772 19711 19715 28
15773 19716 19717 28
15774 19716 19718 28
15775 19716 19719 28
15776 19716 19720 28
15777 19721 19722 28
15778 19721 19723 28
15779 19721 19724 28
15780 19721 19725 28
15781 19726 19727 28
15782 19726 19728 28
15783 19726 19729 28
15784 19726 19730 28
15785 19731 19732 28
15786 19731 19733 28
15787 19731 19734 28
15788 19731 19735 28
15789 19736 19737 28
15790 19736 19738 28
15791 19736 19739 28
15792 19736 19740 28
15793 19741 19742 28
15794 19741 19743 28
15795 19741 19744 28
15796 19741 19745 28
15797 19746 19747 28
15798 19746 19748 28
15799 19746 19749 28
15800 19746 19750 28
15801 19751 19752 28
15802 19751 19753 28
15803 19751 19754 28
15804 19751 19755 28
15805 19756 19757 28
15806 19756 19758 28
15807 19756 19759 28
15808 19756 19760 28
15809 19761 19762 28
15810 19761 19763 28
15811 19761 19764 28
15812 19761 19765 28
15813 19766 19767 28
15814 19766 19768 28
15815 19766 19769 28
15816 19766 19770 28
15817 19771 19772 28
15818 19771 19773 28
15819 19771 19774 28
15820 19771 19775 28
15821 19776 19777 28
15822 19776 19778 28
15823 19776 19779 28
15824 19776 19780 28
15825 19781 19782 28
15826 19781 19783 28
15827 19781 19784 28
15828 19781 19785 28
15829 19786 19787 28
15830 19786 19788 28
15831 19786 19789 28
15832 19786 19790 28
15833 19791 19792 28
15834 19791 19793 28
15835 19791 19794 28
15836 19791 19795 28
15837 19796 19797 28
15838 19796 19798 28
15839 19796 19799 28
15840 19796 19800 28
15841 19801 19802 28
15842 19801 19803 28
15843 19801 19804 28
15844 19801 19805 28
15845 19806 19807 28
15846 19806 19808 28
15847 19806 19809 28
15848 19806 19810 28
15849 19811 19812 28
15850 19811 19813 28
15851 19811 19814 28
15852 19811 19815 28
15853 19816 19817 28
15854 19816 19818 28
15855 19816 19819 28
15856 19816 19820 28
15857 19821 19822 28
15858 19821 19823 28
15859 19821 19824 28
15860 19821 19825 28
15861 19826 19827 28
15862 19826 19828 28
15863 19826 19829 28
15864 19826 19830 28
15865 19831 19832 28
15866 19831 19833 28
15867 19831 19834 28
15868 19831 19835 28
15869 19836 19837 28
15870 19836 19838 28
15871 19836 19839 28
15872 19836 19840 28
15873 19841 19842 28
15874 19841 19843 28
15875 19841 19844 28
15876 19841 19845 28
15877 19846 19847 28
15878 19846 19848 28
15879 19846 19849 28
15880 19846 19850 28
15881 19851 19852 28
15882 19851 19853 28
15883 19851 19854 28
15884 19851 19855 28
15885 19856 19857 28
15886 19856 19858 28
15887 19856 19859 28
15888 19856 19860 28
15889 19861 19862 28
15890 19861 19863 28
15891 19861 19864 28
15892 19861 19865 28
15893 19866 19867 28
15894 19866 19868 28
15895 19866 19869 28
15896 19866 19870 28
15897 19871 19872 28
15898 19871 19873 28
15899 19871 19874 28
15900 19871 19875 28
15901 19876 19877 28
15902 19876 19878 28
15903 19876 19879 28
15904 19876 19880 28
15905 19881 19882 28
15906 19881 19883 28
15907 19881 19884 28
15908 19881 19885 28
15909 19886 19887 28
15910 19886 19888 28
15911 19886 19889 28
15912 19886 19890 28
15913 19891 19892 28
15914 19891 19893 28
15915 19891 19894 28
15916 19891 19895 28
15917 19896 19897 28
15918 19896 19898 28
15919 19896 19899 28
15920 19896 19900 28
15921 19901 19902 28
15922 19901 19903 28
15923 19901 19904 28
15924 19901 19905 28
15925 19906 19907 28
15926 19906 19908 28
15927 19906 19909 28
15928 19906 19910 28
15929 19911 19912 28
15930 19911 19913 28
15931 19911 19914 28
15932 19911 19915 28
15933 19916 19917 28
15934 19916 19918 28
15935 19916 19919 28
15936 19916 19920 28
15937 19921 19922 28
15938 19921 19923 28
15939 19921 19924 28
15940 19921 19925 28
15941 19926 19927 28
15942 19926 19928 28
15943 19926 19929 28
15944 19926 19930 28
15945 19931 19932 28
15946 19931 19933 28
15947 19931 19934 28
15948 19931 19935 28
15949 19936 19937 28
15950 19936 19938 28
15951 19936 19939 28
15952 19936 19940 28
15953 19941 19942 28
15954 19941 19943 28
15955 19941 19944 28
15956 19941 19945 28
15957 19946 19947 28
15958 19946 19948 28
15959 19946 19949 28
15960 19946 19950 28
15961 19951 19952 28
15962 19951 19953 28
15963 19951 19954 28
15964 19951 19955 28
15965 19956 19957 28
15966 19956 19958 28
15967 19956 19959 28
15968 19956 19960 28
15969 19961 19962 28
15970 19961 19963 28
15971 19961 19964 28
15972 19961 19965 28
15973 19966 19967 28
15974 19966 19968 28
15975 19966 19969 28
15976 19966 19970 28
15977 19971 19972 28
15978 19971 19973 28
15979 19971 19974 28
15980 19971 19975 28
15981 19976 19977 28
15982 19976 19978 28
15983 19976 19979 28
15984 19976 19980 28
15985 19981 19982 28
15986 19981 19983 28
15987 19981 19984 28
15988 19981 19985 28
15989 19986 19987 28
15990 19986 19988 28
15991 19986 19989 28
15992 19986 19990 28
15993 19991 19992 28
15994 19991 19993 28
15995 19991 19994 28
15996 19991 19995 28
15997 19996 19997 28
15998 19996 19998 28
15999 19996 19999 28
16000 19996 20000 28
16001 20001 20002 28
16002 20001 20003 28
16003 20001 20004 28
16004 20001 20005 28
16005 20006 20007 28
16006 20006 20008 28
16007 20006 20009 28
16008 20006 20010 28
16009 20011 20012 28
16010 20011 20013 28
16011 20011 20014 28
16012 20011 20015 28
16013 20016 20017 28
16014 20016 20018 28
16015 20016 20019 28
16016 20016 20020 28
16017 20021 20022 28
16018 20021 20023 28
16019 20021 20024 28
16020 20021 20025 28
16021 20026 20027 28
16022 20026 20028 28
16023 20026 20029 28
16024 20026 20030 28
16025 20031 20032 28
16026 20031 20033 28
16027 20031 20034 28
16028 20031 20035 28
16029 20036 20037 28
16030 20036 20038 28
16031 20036 20039 28
16032 20036 20040 28
16033 20041 20042 28
16034 20041 20043 28
16035 20041 20044 28
16036 20041 20045 28
16037 20046 20047 28
16038 20046 20048 28
16039 20046 20049 28
16040 20046 20050 28
16041 20051 20052 28
16042 20051 20053 28
16043 20051 20054 28
16044 20051 20055 28
16045 20056 20057 28
16046 20056 20058 28
16047 20056 20059 28
16048 20056 20060 28
16049 20061 20062 28
16050 20061 20063 28
16051 20061 20064 28
16052 20061 20065 28
16053 20066 20067 28
16054 20066 20068 28
16055 20066 20069 28
16056 20066 20070 28
16057 20071 20072 28
16058 20071 20073 28
16059 20071 20074 28
16060 20071 20075 28
16061 20076 20077 28
16062 20076 20078 28
16063 20076 20079 28
16064 20076 20080 28
16065 20081 20082 28
16066 20081 20083 28
16067 20081 20084 28
16068 20081 20085 28
16069 20086 20087 28
16070 20086 20088 28
16071 20086 20089 28
16072 20086 20090 28
16073 20091 20092 28
16074 20091 20093 28
16075 20091 20094 28
16076 20091 20095 28
16077 20096 20097 28
16078 20096 20098 28
16079 20096 20099 28
16080 20096 20100 28
16081 20101 20102 28
16082 20101 20103 28
16083 20101 20104 28
16084 20101 20105 28
16085 20106 20107 28
16086 20106 20108 28
16087 20106 20109 28
16088 20106 20110 28
16089 20111 20112 28
16090 20111 20113 28
16091 20111 20114 28
16092 20111 20115 28
16093 20116 20117 28
16094 20116 20118 28
16095 20116 20119 28
16096 20116 20120 28
16097 20121 20122 28
16098 20121 20123 28
16099 20121 20124 28
16100 20121 20125 28
16101 20126 20127 28
16102 20126 20128 28
16103 20126 20129 28
16104 20126 20130 28
16105 20131 20132 28
16106 20131 20133 28
16107 20131 20134 28
16108 20131 20135 28
16109 20136 20137 28
16110 20136 20138 28
16111 20136 20139 28
16112 20136 20140 28
16113 20141 20142 28
16114 20141 20143 28
16115 20141 20144 28
16116 20141 20145 28
16117 20146 20147 28
16118 20146 20148 28
16119 20146 20149 28
16120 20146 20150 28
16121 20151 20152 28
16122 20151 20153 28
16123 20151 20154 28
16124 20151 20155 28
16125 20156 20157 28
16126 20156 20158 28
16127 20156 20159 28
16128 20156 20160 28
16129 20161 20162 28
16130 20161 20163 28
16131 20161 20164 28
16132 20161 20165 28
16133 20166 20167 28
16134 20166 20168 28
16135 20166 20169 28
16136 20166 20170 28
16137 20171 20172 28
16138 20171 20173 28
16139 20171 20174 28
16140 20171 20175 28
16141 20176 20177 28
16142 20176 20178 28
16143 20176 20179 28
16144 20176 20180 28
16145 20181 20182 28
16146 20181 20183 28
16147 20181 20184 28
16148 20181 20185 28
16149 20186 20187 28
16150 20186 20188 28
16151 20186 20189 28
16152 20186 20190 28
16153 20191 20192 28
16154 20191 20193 28
16155 20191 20194 28
16156 20191 20195 28
16157 20196 20197 28
16158 20196 20198 28
16159 20196 20199 28
16160 20196 20200 28
16161 20201 20202 28
16162 20201 20203 28
16163 20201 20204 28
16164 20201 20205 28
16165 20206 20207 28
16166 20206 20208 28
16167 20206 20209 28
16168 20206 20210 28
16169 20211 20212 28
16170 20211 20213 28
16171 20211 20214 28
16172 20211 20215 28
16173 20216 20217 28
16174 20216 20218 28
16175 20216 20219 28
16176 20216 20220 28
16177 20221 20222 28
16178 20221 20223 28
16179 20221 20224 28
16180 20221 20225 28
16181 20226 20227 28
16182 20226 20228 28
16183 20226 20229 28
16184 20226 20230 28
16185 20231 20232 28
16186 20231 20233 28
16187 20231 20234 28
16188 20231 20235 28
16189 20236 20237 28
16190 20236 20238 28
16191 20236 20239 28
16192 20236 20240 28
16193 20241 20242 28
16194 20241 20243 28
16195 20241 20244 28
16196 20241 20245 28
16197 20246 20247 28
16198 20246 20248 28
16199 20246 20249 28
16200 20246 20250 28
16201 20251 20252 28
16202 20251 20253 28
16203 20251 20254 28
16204 20251 20255 28
16205 20256 20257 28
16206 20256 20258 28
16207 20256 20259 28
16208 20256 20260 28
16209 20261 20262 28
16210 20261 20263 28
16211 20261 20264 28
16212 20261 20265 28
16213 20266 20267 28
16214 20266 20268 28
16215 20266 20269 28
16216 20266 20270 28
16217 20271 20272 28
16218 20271 20273 28
16219 20271 20274 28
16220 20271 20275 28
16221 20276 20277 28
16222 20276 20278 28
16223 20276 20279 28
16224 20276 20280 28
16225 20281 20282 28
16226 20281 20283 28
16227 20281 20284 28
16228 20281 20285 28
16229 20286 20287 28
16230 20286 20288 28
16231 20286 20289 28
16232 20286 20290 28
16233 20291 20292 28
16234 20291 20293 28
16235 20291 20294 28
16236 20291 20295 28
16237 20296 20297 28
16238 20296 20298 28
16239 20296 20299 28
16240 20296 20300 28
16241 20301 20302 28
16242 20301 20303 28
16243 20301 20304 28
16244 20301 20305 28
16245 20306 20307 28
16246 20306 20308 28
16247 20306 20309 28
16248 20306 20310 28
16249 20311 20312 28
16250 20311 20313 28
16251 20311 20314 28
16252 20311 20315 28
16253 20316 20317 28
16254 20316 20318 28
16255 20316 20319 28
16256 20316 20320 28
16257 20321 20322 28
16258 20321 20323 28
16259 20321 20324 28
16260 20321 20325 28
16261 20326 20327 28
16262 20326 20328 28
16263 20326 20329 28
16264 20326 20330 28
16265 20331 20332 28
16266 20331 20333 28
16267 20331 20334 28
16268 20331 20335 28
16269 20336 20337 28
16270 20336 20338 28
16271 20336 20339 28
16272 20336 20340 28
16273 20341 20342 28
16274 20341 20343 28
16275 20341 20344 28
16276 20341 20345 28
16277 20346 20347 28
16278 20346 20348 28
16279 20346 20349 28
16280 20346 20350 28
16281 20351 20352 28
16282 20351 20353 28
16283 20351 20354 28
16284 20351 20355 28
16285 20356 20357 28
16286 20356 20358 28
16287 20356 20359 28
16288 20356 20360 28
16289 20361 20362 28
16290 20361 20363 28
16291 20361 20364 28
16292 20361 20365 28
16293 20366 20367 28
16294 20366 20368 28
16295 20366 20369 28
16296 20366 20370 28
16297 20371 20372 28
16298 20371 20373 28
16299 20371 20374 28
16300 20371 20375 28
16301 20376 20377 28
16302 20376 20378 28
16303 20376 20379 28
16304 20376 20380 28
16305 20381 20382 28
16306 20381 20383 28
16307 20381 20384 28
16308 20381 20385 28
16309 20386 20387 28
16310 20386 20388 28
16311 20386 20389 28
16312 20386 20390 28
16313 20391 20392 28
16314 20391 20393 28
16315 20391 20394 28
16316 20391 20395 28
16317 20396 20397 28
16318 20396 20398 28
16319 20396 20399 28
16320 20396 20400 28
16321 20401 20402 28
16322 20401 20403 28
16323 20401 20404 28
16324 20401 20405 28
16325 20406 20407 28
16326 20406 20408 28
16327 20406 20409 28
16328 20406 20410 28
16329 20411 20412 28
16330 20411 20413 28
16331 20411 20414 28
16332 20411 20415 28
16333 20416 20417 28
16334 20416 20418 28
16335 20416 20419 28
16336 20416 20420 28
16337 20421 20422 28
16338 20421 20423 28
16339 20421 20424 28
16340 20421 20425 28
16341 20426 20427 28
16342 20426 20428 28
16343 20426 20429 28
16344 20426 20430 28
16345 20431 20432 28
16346 20431 20433 28
16347 20431 20434 28
16348 20431 20435 28
16349 20436 20437 28
16350 20436 20438 28
16351 20436 20439 28
16352 20436 20440 28
16353 20441 20442 28
16354 20441 20443 28
16355 20441 20444 28
16356 20441 20445 28
16357 20446 20447 28
16358 20446 20448 28
16359 20446 20449 28
16360 20446 20450 28
16361 20451 20452 28
16362 20451 20453 28
16363 20451 20454 28
16364 20451 20455 28
16365 20456 20457 28
16366 20456 20458 28
16367 20456 20459 28
16368 20456 20460 28
16369 20461 20462 28
16370 20461 20463 28
16371 20461 20464 28
16372 20461 20465 28
16373 20466 20467 28
16374 20466 20468 28
16375 20466 20469 28
16376 20466 20470 28
16377 20471 20472 28
16378 20471 20473 28
16379 20471 20474 28
16380 20471 20475 28
16381 20476 20477 28
16382 20476 20478 28
16383 20476 20479 28
16384 20476 20480 28
16385 20481 20482 28
16386 20481 20483 28
16387 20481 20484 28
16388 20481 20485 28
16389 20486 20487 28
16390 20486 20488 28
16391 20486 20489 28
16392 20486 20490 28
16393 20491 20492 28
16394 20491 20493 28
16395 20491 20494 28
16396 20491 20495 28
16397 20496 20497 28
16398 20496 20498 28
16399 20496 20499 28
16400 20496 20500 28
16401 20501 20502 28
16402 20501 20503 28
16403 20501 20504 28
16404 20501 20505 28
16405 20506 20507 28
16406 20506 20508 28
16407 20506 20509 28
16408 20506 20510 28
16409 20511 20512 28
16410 20511 20513 28
16411 20511 20514 28
16412 20511 20515 28
16413 20516 20517 28
16414 20516 20518 28
16415 20516 20519 28
16416 20516 20520 28
16417 20521 20522 28
16418 20521 20523 28
16419 20521 20524 28
16420 20521 20525 28
16421 20526 20527 28
16422 20526 20528 28
16423 20526 20529 28
16424 20526 20530 28
16425 20531 20532 28
16426 20531 20533 28
16427 20531 20534 28
16428 20531 20535 28
16429 20536 20537 28
16430 20536 20538 28
16431 20536 20539 28
16432 20536 20540 28
16433 20541 20542 28
16434 20541 20543 28
16435 20541 20544 28
16436 20541 20545 28
16437 20546 20547 28
16438 20546 20548 28
16439 20546 20549 28
16440 20546 20550 28
16441 20551 20552 28
16442 20551 20553 28
16443 20551 20554 28
16444 20551 20555 28
16445 20556 20557 28
16446 20556 20558 28
16447 20556 20559 28
16448 20556 20560 28
16449 20561 20562 28
16450 20561 20563 28
16451 20561 20564 28
16452 20561 20565 28
16453 20566 20567 28
16454 20566 20568 28
16455 20566 20569 28
16456 20566 20570 28
16457 20571 20572 28
16458 20571 20573 28
16459 20571 20574 28
16460 20571 20575 28
16461 20576 20577 28
16462 20576 20578 28
16463 20576 20579 28
16464 20576 20580 28
16465 20581 20582 28
16466 20581 20583 28
16467 20581 20584 28
16468 20581 20585 28
16469 20586 20587 28
16470 20586 20588 28
16471 20586 20589 28
16472 20586 20590 28
16473 20591 20592 28
16474 20591 20593 28
16475 20591 20594 28
16476 20591 20595 28
16477 20596 20597 28
16478 20596 20598 28
16479 20596 20599 28
16480 20596 20600 28
16481 20601 20602 28
16482 20601 20603 28
16483 20601 20604 28
16484 20601 20605 28
16485 20606 20607 28
16486 20606 20608 28
16487 20606 20609 28
16488 20606 20610 28
16489 20611 20612 28
16490 20611 20613 28
16491 20611 20614 28
16492 20611 20615 28
16493 20616 20617 28
16494 20616 20618 28
16495 20616 20619 28
16496 20616 20620 28
16497 20621 20622 28
16498 20621 20623 28
16499 20621 20624 28
16500 20621 20625 28
16501 20626 20627 28
16502 20626 20628 28
16503 20626 20629 28
16504 20626 20630 28
16505 20631 20632 28
16506 20631 20633 28
16507 20631 20634 28
16508 20631 20635 28
16509 20636 20637 28
16510 20636 20638 28
16511 20636 20639 28
16512 20636 20640 28
16513 20641 20642 28
16514 20641 20643 28
16515 20641 20644 28
16516 20641 20645 28
16517 20646 20647 28
16518 20646 20648 28
16519 20646 20649 28
16520 20646 20650 28
16521 20651 20652 28
16522 20651 20653 28
16523 20651 20654 28
16524 20651 20655 28
16525 20656 20657 28
16526 20656 20658 28
16527 20656 20659 28
16528 20656 20660 28
16529 20661 20662 28
16530 20661 20663 28
16531 20661 20664 28
16532 20661 20665 28
16533 20666 20667 28
16534 20666 20668 28
16535 20666 20669 28
16536 20666 20670 28
16537 20671 20672 28
16538 20671 20673 28
16539 20671 20674 28
16540 20671 20675 28
16541 20676 20677 28
16542 20676 20678 28
16543 20676 20679 28
16544 20676 20680 28
16545 20681 20682 28
16546 20681 20683 28
16547 20681 20684 28
16548 20681 20685 28
16549 20686 20687 28
16550 20686 20688 28
16551 20686 20689 28
16552 20686 20690 28
16553 20691 20692 28
16554 20691 20693 28
16555 20691 20694 28
16556 20691 20695 28
16557 20696 20697 28
16558 20696 20698 28
16559 20696 20699 28
16560 20696 20700 28
16561 20701 20702 28
16562 20701 20703 28
16563 20701 20704 28
16564 20701 20705 28
16565 20706 20707 28
16566 20706 20708 28
16567 20706 20709 28
16568 20706 20710 28
16569 20711 20712 28
16570 20711 20713 28
16571 20711 20714 28
16572 20711 20715 28
16573 20716 20717 28
16574 20716 20718 28
16575 20716 20719 28
16576 20716 20720 28
16577 20721 20722 28
16578 20721 20723 28
16579 20721 20724 28
16580 20721 20725 28
16581 20726 20727 28
16582 20726 20728 28
16583 20726 20729 28
16584 20726 20730 28
16585 20731 20732 28
16586 20731 20733 28
16587 20731 20734 28
16588 20731 20735 28
16589 20736 20737 28
16590 20736 20738 28
16591 20736 20739 28
16592 20736 20740 28
16593 20741 20742 28
16594 20741 20743 28
16595 20741 20744 28
16596 20741 20745 28
16597 20746 20747 28
16598 20746 20748 28
16599 20746 20749 28
16600 20746 20750 28
16601 20751 20752 28
16602 20751 20753 28
16603 20751 20754 28
16604 20751 20755 28
16605 20756 20757 28
16606 20756 20758 28
16607 20756 20759 28
16608 20756 20760 28
16609 20761 20762 28
16610 20761 20763 28
16611 20761 20764 28
16612 20761 20765 28
16613 20766 20767 28
16614 20766 20768 28
16615 20766 20769 28
16616 20766 20770 28
16617 20771 20772 28
16618 20771 20773 28
16619 20771 20774 28
16620 20771 20775 28
16621 20776 20777 28
16622 20776 20778 28
16623 20776 20779 28
16624 20776 20780 28
16625 20781 20782 28
16626 20781 20783 28
16627 20781 20784 28
16628 20781 20785 28
16629 20786 20787 28
16630 20786 20788 28
16631 20786 20789 28
16632 20786 20790 28
16633 20791 20792 28
16634 20791 20793 28
16635 20791 20794 28
16636 20791 20795 28
16637 20796 20797 28
16638 20796 20798 28
16639 20796 20799 28
16640 20796 20800 28
16641 20801 20802 28
16642 20801 20803 28
16643 20801 20804 28
16644 20801 20805 28
16645 20806 20807 28
16646 20806 20808 28
16647 20806 20809 28
16648 20806 20810 28
16649 20811 20812 28
16650 20811 20813 28
16651 20811 20814 28
16652 20811 20815 28
16653 20816 20817 28
16654 20816 20818 28
16655 20816 20819 28
16656 20816 20820 28
16657 20821 20822 28
16658 20821 20823 28
16659 20821 20824 28
16660 20821 20825 28
16661 20826 20827 28
16662 20826 20828 28
16663 20826 20829 28
16664 20826 20830 28
16665 20831 20832 28
16666 20831 20833 28
16667 20831 20834 28
16668 20831 20835 28
16669 20836 20837 28
16670 20836 20838 28
16671 20836 20839 28
16672 20836 20840 28
16673 20841 20842 28
16674 20841 20843 28
16675 20841 20844 28
16676 20841 20845 28
16677 20846 20847 28
16678 20846 20848 28
16679 20846 20849 28
16680 20846 20850 28
16681 20851 20852 28
16682 20851 20853 28
16683 20851 20854 28
16684 20851 20855 28
16685 20856 20857 28
16686 20856 20858 28
16687 20856 20859 28
16688 20856 20860 28
16689 20861 20862 28
16690 20861 20863 28
16691 20861 20864 28
16692 20861 20865 28
16693 20866 20867 28
16694 20866 20868 28
16695 20866 20869 28
16696 20866 20870 28
16697 20871 20872 28
16698 20871 20873 28
16699 20871 20874 28
16700 20871 20875 28
16701 20876 20877 28
16702 20876 20878 28
16703 20876 20879 28
16704 20876 20880 28
16705 20881 20882 28
16706 20881 20883 28
16707 20881 20884 28
16708 20881 20885 28
16709 20886 20887 28
16710 20886 20888 28
16711 20886 20889 28
16712 20886 20890 28
16713 20891 20892 28
16714 20891 20893 28
16715 20891 20894 28
16716 20891 20895 28
16717 20896 20897 28
16718 20896 20898 28
16719 20896 20899 28
16720 20896 20900 28
16721 20901 20902 28
16722 20901 20903 28
16723 20901 20904 28
16724 20901 20905 28
16725 20906 20907 28
16726 20906 20908 28
16727 20906 20909 28
16728 20906 20910 28
16729 20911 20912 28
16730 20911 20913 28
16731 20911 20914 28
16732 20911 20915 28
16733 20916 20917 28
16734 20916 20918 28
16735 20916 20919 28
16736 20916 20920 28
16737 20921 20922 28
16738 20921 20923 28
16739 20921 20924 28
16740 20921 20925 28
16741 20926 20927 28
16742 20926 20928 28
16743 20926 20929 28
16744 20926 20930 28
16745 20931 20932 28
16746 20931 20933 28
16747 20931 20934 28
16748 20931 20935 28
16749 20936 20937 28
16750 20936 20938 28
16751 20936 20939 28
16752 20936 20940 28
16753 20941 20942 28
16754 20941 20943 28
16755 20941 20944 28
16756 20941 20945 28
16757 20946 20947 28
16758 20946 20948 28
16759 20946 20949 28
16760 20946 20950 28
16761 20951 20952 28
16762 20951 20953 28
16763 20951 20954 28
16764 20951 20955 28
16765 20956 20957 28
16766 20956 20958 28
16767 20956 20959 28
16768 20956 20960 28
16769 20961 20962 28
16770 20961 20963 28
16771 20961 20964 28
16772 20961 20965 28
16773 20966 20967 28
16774 20966 20968 28
16775 20966 20969 28
16776 20966 20970 28
16777 20971 20972 28
16778 20971 20973 28
16779 20971 20974 28
16780 20971 20975 28
16781 20976 20977 28
16782 20976 20978 28
16783 20976 20979 28
16784 20976 20980 28
16785 20981 20982 28
16786 20981 20983 28
16787 20981 20984 28
16788 20981 20985 28
16789 20986 20987 28
16790 20986 20988 28
16791 20986 20989 28
16792 20986 20990 28
16793 20991 20992 28
16794 20991 20993 28
16795 20991 20994 28
16796 20991 20995 28
16797 20996 20997 28
16798 20996 20998 28
16799 20996 20999 28
16800 20996 21000 28
16801 21001 21002 28
16802 21001 21003 28
16803 21001 21004 28
16804 21001 21005 28
16805 21006 21007 28
16806 21006 21008 28
16807 21006 21009 28
16808 21006 21010 28
16809 21011 21012 28
16810 21011 21013 28
16811 21011 21014 28
16812 21011 21015 28
16813 21016 21017 28
16814 21016 21018 28
16815 21016 21019 28
16816 21016 21020 28
16817 21021 21022 28
16818 21021 21023 28
16819 21021 21024 28
16820 21021 21025 28
16821 21026 21027 28
16822 21026 21028 28
16823 21026 21029 28
16824 21026 21030 28
16825 21031 21032 28
16826 21031 21033 28
16827 21031 21034 28
16828 21031 21035 28
16829 21036 21037 28
16830 21036 21038 28
16831 21036 21039 28
16832 21036 21040 28
16833 21041 21042 28
16834 21041 21043 28
16835 21041 21044 28
16836 21041 21045 28
16837 21046 21047 28
16838 21046 21048 28
16839 21046 21049 28
16840 21046 21050 28
16841 21051 21052 28
16842 21051 21053 28
16843 21051 21054 28
16844 21051 21055 28
16845 21056 21057 28
16846 21056 21058 28
16847 21056 21059 28
16848 21056 21060 28
16849 21061 21062 28
16850 21061 21063 28
16851 21061 21064 28
16852 21061 21065 28
16853 21066 21067 28
16854 21066 21068 28
16855 21066 21069 28
16856 21066 21070 28
16857 21071 21072 28
16858 21071 21073 28
16859 21071 21074 28
16860 21071 21075 28
16861 21076 21077 28
16862 21076 21078 28
16863 21076 21079 28
16864 21076 21080 28
16865 21081 21082 28
16866 21081 21083 28
16867 21081 21084 28
16868 21081 21085 28
16869 21086 21087 28
16870 21086 21088 28
16871 21086 21089 28
16872 21086 21090 28
16873 21091 21092 28
16874 21091 21093 28
16875 21091 21094 28
16876 21091 21095 28
16877 21096 21097 28
16878 21096 21098 28
16879 21096 21099 28
16880 21096 21100 28
16881 21101 21102 28
16882 21101 21103 28
16883 21101 21104 28
16884 21101 21105 28
16885 21106 21107 28
16886 21106 21108 28
16887 21106 21109 28
16888 21106 21110 28
16889 21111 21112 28
16890 21111 21113 28
16891 21111 21114 28
16892 21111 21115 28
16893 21116 21117 28
16894 21116 21118 28
16895 21116 21119 28
16896 21116 21120 28
16897 21121 21122 28
16898 21121 21123 28
16899 21121 21124 28
16900 21121 21125 28
16901 21126 21127 28
16902 21126 21128 28
16903 21126 21129 28
16904 21126 21130 28
16905 21131 21132 28
16906 21131 21133 28
16907 21131 21134 28
16908 21131 21135 28
16909 21136 21137 28
16910 21136 21138 28
16911 21136 21139 28
16912 21136 21140 28
16913 21141 21142 28
16914 21141 21143 28
16915 21141 21144 28
16916 21141 21145 28
16917 21146 21147 28
16918 21146 21148 28
16919 21146 21149 28
16920 21146 21150 28
16921 21151 21152 28
16922 21151 21153 28
16923 21151 21154 28
16924 21151 21155 28
16925 21156 21157 28
16926 21156 21158 28
16927 21156 21159 28
16928 21156 21160 28
16929 21161 21162 28
16930 21161 21163 28
16931 21161 21164 28
16932 21161 21165 28
16933 21166 21167 28
16934 21166 21168 28
16935 21166 21169 28
16936 21166 21170 28
16937 21171 21172 28
16938 21171 21173 28
16939 21171 21174 28
16940 21171 21175 28
16941 21176 21177 28
16942 21176 21178 28
16943 21176 21179 28
16944 21176 21180 28
16945 21181 21182 28
16946 21181 21183 28
16947 21181 21184 28
16948 21181 21185 28
16949 21186 21187 28
16950 21186 21188 28
16951 21186 21189 28
16952 21186 21190 28
16953 21191 21192 28
16954 21191 21193 28
16955 21191 21194 28
16956 21191 21195 28
16957 21196 21197 28
16958 21196 21198 28
16959 21196 21199 28
16960 21196 21200 28
16961 21201 21202 28
16962 21201 21203 28
16963 21201 21204 28
16964 21201 21205 28
16965 21206 21207 28
16966 21206 21208 28
16967 21206 21209 28
16968 21206 21210 28
16969 21211 21212 28
16970 21211 21213 28
16971 21211 21214 28
16972 21211 21215 28
16973 21216 21217 28
16974 21216 21218 28
16975 21216 21219 28
16976 21216 21220 28
16977 21221 21222 28
16978 21221 21223 28
16979 21221 21224 28
16980 21221 21225 28
16981 21226 21227 28
16982 21226 21228 28
16983 21226 21229 28
16984 21226 21230 28
16985 21231 21232 28
16986 21231 21233 28
16987 21231 21234 28
16988 21231 21235 28
16989 21236 21237 28
16990 21236 21238 28
16991 21236 21239 28
16992 21236 21240 28
16993 21241 21242 28
16994 21241 21243 28
16995 21241 21244 28
16996 21241 21245 28
16997 21246 21247 28
16998 21246 21248 28
16999 21246 21249 28
17000 21246 21250 28
17001 21251 21252 28
17002 21251 21253 28
17003 21251 21254 28
17004 21251 21255 28
17005 21256 21257 28
17006 21256 21258 28
17007 21256 21259 28
17008 21256 21260 28
17009 21261 21262 28
17010 21261 21263 28
17011 21261 21264 28
17012 21261 21265 28
17013 21266 21267 28
17014 21266 21268 28
17015 21266 21269 28
17016 21266 21270 28
17017 21271 21272 28
17018 21271 21273 28
17019 21271 21274 28
17020 21271 21275 28
17021 21276 21277 28
17022 21276 21278 28
17023 21276 21279 28
17024 21276 21280 28
17025 21281 21282 28
17026 21281 21283 28
17027 21281 21284 28
17028 21281 21285 28
17029 21286 21287 28
17030 21286 21288 28
17031 21286 21289 28
17032 21286 21290 28
17033 21291 21292 28
17034 21291 21293 28
17035 21291 21294 28
17036 21291 21295 28
17037 21296 21297 28
17038 21296 21298 28
17039 21296 21299 28
17040 21296 21300 28
17041 21301 21302 28
17042 21301 21303 28
17043 21301 21304 28
17044 21301 21305 28
17045 21306 21307 28
17046 21306 21308 28
17047 21306 21309 28
17048 21306 21310 28
17049 21311 21312 28
17050 21311 21313 28
17051 21311 21314 28
17052 21311 21315 28
17053 21316 21317 28
17054 21316 21318 28
17055 21316 21319 28
17056 21316 21320 28
17057 21321 21322 28
17058 21321 21323 28
17059 21321 21324 28
17060 21321 21325 28
17061 21326 21327 28
17062 21326 21328 28
17063 21326 21329 28
17064 21326 21330 28
17065 21331 21332 28
17066 21331 21333 28
17067 21331 21334 28
17068 21331 21335 28
17069 21336 21337 28
17070 21336 21338 28
17071 21336 21339 28
17072 21336 21340 28
17073 21341 21342 28
17074 21341 21343 28
17075 21341 21344 28
17076 21341 21345 28
17077 21346 21347 28
17078 21346 21348 28
17079 21346 21349 28
17080 21346 21350 28
17081 21351 21352 28
17082 21351 21353 28
17083 21351 21354 28
17084 21351 21355 28
17085 21356 21357 28
17086 21356 21358 28
17087 21356 21359 28
17088 21356 21360 28
17089 21361 21362 28
17090 21361 21363 28
17091 21361 21364 28
17092 21361 21365 28
17093 21366 21367 28
17094 21366 21368 28
17095 21366 21369 28
17096 21366 21370 28
17097 21371 21372 28
17098 21371 21373 28
17099 21371 21374 28
17100 21371 21375 28
17101 21376 21377 28
17102 21376 21378 28
17103 21376 21379 28
17104 21376 21380 28
17105 21381 21382 28
17106 21381 21383 28
17107 21381 21384 28
17108 21381 21385 28
17109 21386 21387 28
17110 21386 21388 28
17111 21386 21389 28
17112 21386 21390 28
17113 21391 21392 28
17114 21391 21393 28
17115 21391 21394 28
17116 21391 21395 28
17117 21396 21397 28
17118 21396 21398 28
17119 21396 21399 28
17120 21396 21400 28
17121 21401 21402 28
17122 21401 21403 28
17123 21401 21404 28
17124 21401 21405 28
17125 21406 21407 28
17126 21406 21408 28
17127 21406 21409 28
17128 21406 21410 28
17129 21411 21412 28
17130 21411 21413 28
17131 21411 21414 28
17132 21411 21415 28
17133 21416 21417 28
17134 21416 21418 28
17135 21416 21419 28
17136 21416 21420 28
17137 21421 21422 28
17138 21421 21423 28
17139 21421 21424 28
17140 21421 21425 28
17141 21426 21427 28
17142 21426 21428 28
17143 21426 21429 28
17144 21426 21430 28
17145 21431 21432 28
17146 21431 21433 28
17147 21431 21434 28
17148 21431 21435 28
17149 21436 21437 28
17150 21436 21438 28
17151 21436 21439 28
17152 21436 21440 28
17153 21441 21442 28
17154 21441 21443 28
17155 21441 21444 28
17156 21441 21445 28
17157 21446 21447 28
17158 21446 21448 28
17159 21446 21449 28
17160 21446 21450 28
17161 21451 21452 28
17162 21451 21453 28
17163 21451 21454 28
17164 21451 21455 28
17165 21456 21457 28
17166 21456 21458 28
17167 21456 21459 28
17168 21456 21460 28
17169 21461 21462 28
17170 21461 21463 28
17171 21461 21464 28
17172 21461 21465 28
17173 21466 21467 28
17174 21466 21468 28
17175 21466 21469 28
17176 21466 21470 28
17177 21471 21472 28
17178 21471 21473 28
17179 21471 21474 28
17180 21471 21475 28
17181 21476 21477 28
17182 21476 21478 28
17183 21476 21479 28
17184 21476 21480 28
17185 21481 21482 28
17186 21481 21483 28
17187 21481 21484 28
17188 21481 21485 28
17189 21486 21487 28
17190 21486 21488 28
17191 21486 21489 28
17192 21486 21490 28
17193 21491 21492 28
17194 21491 21493 28
17195 21491 21494 28
17196 21491 21495 28
17197 21496 21497 28
17198 21496 21498 28
17199 21496 21499 28
17200 21496 21500 28
17201 21501 21502 28
17202 21501 21503 28
17203 21501 21504 28
17204 21501 21505 28
17205 21506 21507 28
17206 21506 21508 28
17207 21506 21509 28
17208 21506 21510 28
17209 21511 21512 28
17210 21511 21513 28
17211 21511 21514 28
17212 21511 21515 28
17213 21516 21517 28
17214 21516 21518 28
17215 21516 21519 28
17216 21516 21520 28
17217 21521 21522 28
17218 21521 21523 28
17219 21521 21524 28
17220 21521 21525 28
17221 21526 21527 28
17222 21526 21528 28
17223 21526 21529 28
17224 21526 21530 28
17225 21531 21532 28
17226 21531 21533 28
17227 21531 21534 28
17228 21531 21535 28
17229 21536 21537 28
17230 21536 21538 28
17231 21536 21539 28
17232 21536 21540 28
17233 21541 21542 28
17234 21541 21543 28
17235 21541 21544 28
17236 21541 21545 28
17237 21546 21547 28
17238 21546 21548 28
17239 21546 21549 28
17240 21546 21550 28
17241 21551 21552 28
17242 21551 21553 28
17243 21551 21554 28
17244 21551 21555 28
17245 21556 21557 28
17246 21556 21558 28
17247 21556 21559 28
17248 21556 21560 28
17249 21561 21562 28
17250 21561 21563 28
17251 21561 21564 28
17252 21561 21565 28
17253 21566 21567 28
17254 21566 21568 28
17255 21566 21569 28
17256 21566 21570 28
17257 21571 21572 28
17258 21571 21573 28
17259 21571 21574 28
17260 21571 21575 28
17261 21576 21577 28
17262 21576 21578 28
17263 21576 21579 28
17264 21576 21580 28
17265 21581 21582 28
17266 21581 21583 28
17267 21581 21584 28
17268 21581 21585 28
17269 21586 21587 28
17270 21586 21588 28
17271 21586 21589 28
17272 21586 21590 28
17273 21591 21592 28
17274 21591 21593 28
17275 21591 21594 28
17276 21591 21595 28
17277 21596 21597 28
17278 21596 21598 28
17279 21596 21599 28
17280 21596 21600 28
17281 21601 21602 28
17282 21601 21603 28
17283 21601 21604 28
17284 21601 21605 28
17285 21606 21607 28
17286 21606 21608 28
17287 21606 21609 28
17288 21606 21610 28
17289 21611 21612 28
17290 21611 21613 28
17291 21611 21614 28
17292 21611 21615 28
17293 21616 21617 28
17294 21616 21618 28
17295 21616 21619 28
17296 21616 21620 28
17297 21621 21622 28
17298 21621 21623 28
17299 21621 21624 28
17300 21621 21625 28
17301 21626 21627 28
17302 21626 21628 28
17303 21626 21629 28
17304 21626 21630 28
17305 21631 21632 28
17306 21631 21633 28
17307 21631 21634 28
17308 21631 21635 28
17309 21636 21637 28
17310 21636 21638 28
17311 21636 21639 28
17312 21636 21640 28
17313 21641 21642 28
17314 21641 21643 28
17315 21641 21644 28
17316 21641 21645 28
17317 21646 21647 28
17318 21646 21648 28
17319 21646 21649 28
17320 21646 21650 28
17321 21651 21652 28
17322 21651 21653 28
17323 21651 21654 28
17324 21651 21655 28
17325 21656 21657 28
17326 21656 21658 28
17327 21656 21659 28
17328 21656 21660 28
17329 21661 21662 28
17330 21661 21663 28
17331 21661 21664 28
17332 21661 21665 28
17333 21666 21667 28
17334 21666 21668 28
17335 21666 21669 28
17336 21666 21670 28
17337 21671 21672 28
17338 21671 21673 28
17339 21671 21674 28
17340 21671 21675 28
17341 21676 21677 28
17342 21676 21678 28
17343 21676 21679 28
17344 21676 21680 28
17345 21681 21682 28
17346 21681 21683 28
17347 21681 21684 28
17348 21681 21685 28
17349 21686 21687 28
17350 21686 21688 28
17351 21686 21689 28
17352 21686 21690 28
17353 21691 21692 28
17354 21691 21693 28
17355 21691 21694 28
17356 21691 21695 28
17357 21696 21697 28
17358 21696 21698 28
17359 21696 21699 28
17360 21696 21700 28
17361 21701 21702 28
17362 21701 21703 28
17363 21701 21704 28
17364 21701 21705 28
17365 21706 21707 28
17366 21706 21708 28
17367 21706 21709 28
17368 21706 21710 28
17369 21711 21712 28
17370 21711 21713 28
17371 21711 21714 28
17372 21711 21715 28
17373 21716 21717 28
17374 21716 21718 28
17375 21716 21719 28
17376 21716 21720 28
17377 21721 21722 28
17378 21721 21723 28
17379 21721 21724 28
17380 21721 21725 28
17381 21726 21727 28
17382 21726 21728 28
17383 21726 21729 28
17384 21726 21730 28
17385 21731 21732 28
17386 21731 21733 28
17387 21731 21734 28
17388 21731 21735 28
17389 21736 21737 28
17390 21736 21738 28
17391 21736 21739 28
17392 21736 21740 28
17393 21741 21742 28
17394 21741 21743 28
17395 21741 21744 28
17396 21741 21745 28
17397 21746 21747 28
17398 21746 21748 28
17399 21746 21749 28
17400 21746 21750 28
17401 21751 21752 28
17402 21751 21753 28
17403 21751 21754 28
17404 21751 21755 28
17405 21756 21757 28
17406 21756 21758 28
17407 21756 21759 28
17408 21756 21760 28
17409 21761 21762 28
17410 21761 21763 28
17411 21761 21764 28
17412 21761 21765 28
17413 21766 21767 28
17414 21766 21768 28
17415 21766 21769 28
17416 21766 21770 28
17417 21771 21772 28
17418 21771 21773 28
17419 21771 21774 28
17420 21771 21775 28
17421 21776 21777 28
17422 21776 21778 28
17423 21776 21779 28
17424 21776 21780 28
17425 21781 21782 28
17426 21781 21783 28
17427 21781 21784 28
17428 21781 21785 28
17429 21786 21787 28
17430 21786 21788 28
17431 21786 21789 28
17432 21786 21790 28
17433 21791 21792 28
17434 21791 21793 28
17435 21791 21794 28
17436 21791 21795 28
17437 21796 21797 28
17438 21796 21798 28
17439 21796 21799 28
17440 21796 21800 28
17441 21801 21802 28
17442 21801 21803 28
17443 21801 21804 28
17444 21801 21805 28
17445 21806 21807 28
17446 21806 21808 28
17447 21806 21809 28
17448 21806 21810 28
17449 21811 21812 28
17450 21811 21813 28
17451 21811 21814 28
17452 21811 21815 28
17453 21816 21817 28
17454 21816 21818 28
17455 21816 21819 28
17456 21816 21820 28
17457 21821 21822 28
17458 21821 21823 28
17459 21821 21824 28
17460 21821 21825 28
17461 21826 21827 28
17462 21826 21828 28
17463 21826 21829 28
17464 21826 21830 28
17465 21831 21832 28
17466 21831 21833 28
17467 21831 21834 28
17468 21831 21835 28
17469 21836 21837 28
17470 21836 21838 28
17471 21836 21839 28
17472 21836 21840 28
17473 21841 21842 28
17474 21841 21843 28
17475 21841 21844 28
17476 21841 21845 28
17477 21846 21847 28
17478 21846 21848 28
17479 21846 21849 28
17480 21846 21850 28
17481 21851 21852 28
17482 21851 21853 28
17483 21851 21854 28
17484 21851 21855 28
17485 21856 21857 28
17486 21856 21858 28
17487 21856 21859 28
17488 21856 21860 28
17489 21861 21862 28
17490 21861 21863 28
17491 21861 21864 28
17492 21861 21865 28
17493 21866 21867 28
17494 21866 21868 28
17495 21866 21869 28
17496 21866 21870 28
17497 21871 21872 28
17498 21871 21873 28
17499 21871 21874 28
17500 21871 21875 28
17501 21876 21877 28
17502 21876 21878 28
17503 21876 21879 28
17504 21876 21880 28
17505 21881 21882 28
17506 21881 21883 28
17507 21881 21884 28
17508 21881 21885 28
17509 21886 21887 28
17510 21886 21888 28
17511 21886 21889 28
17512 21886 21890 28
17513 21891 21892 28
17514 21891 21893 28
17515 21891 21894 28
17516 21891 21895 28
17517 21896 21897 28
17518 21896 21898 28
17519 21896 21899 28
17520 21896 21900 28
17521 21901 21902 28
17522 21901 21903 28
17523 21901 21904 28
17524 21901 21905 28
17525 21906 21907 28
17526 21906 21908 28
17527 21906 21909 28
17528 21906 21910 28
17529 21911 21912 28
17530 21911 21913 28
17531 21911 21914 28
17532 21911 21915 28
17533 21916 21917 28
17534 21916 21918 28
17535 21916 21919 28
17536 21916 21920 28
17537 21921 21922 28
17538 21921 21923 28
17539 21921 21924 28
17540 21921 21925 28
17541 21926 21927 28
17542 21926 21928 28
17543 21926 21929 28
17544 21926 21930 28
17545 21931 21932 28
17546 21931 21933 28
17547 21931 21934 28
17548 21931 21935 28
17549 21936 21937 28
17550 21936 21938 28
17551 21936 21939 28
17552 21936 21940 28
17553 21941 21942 28
17554 21941 21943 28
17555 21941 21944 28
17556 21941 21945 28
17557 21946 21947 28
17558 21946 21948 28
17559 21946 21949 28
17560 21946 21950 28
17561 21951 21952 28
17562 21951 21953 28
17563 21951 21954 28
17564 21951 21955 28
17565 21956 21957 28
17566 21956 21958 28
17567 21956 21959 28
17568 21956 21960 28
17569 21961 21962 28
17570 21961 21963 28
17571 21961 21964 28
17572 21961 21965 28
17573 21966 21967 28
17574 21966 21968 28
17575 21966 21969 28
17576 21966 21970 28
17577 21971 21972 28
17578 21971 21973 28
17579 21971 21974 28
17580 21971 21975 28
17581 21976 21977 28
17582 21976 21978 28
17583 21976 21979 28
17584 21976 21980 28
17585 21981 21982 28
17586 21981 21983 28
17587 21981 21984 28
17588 21981 21985 28
17589 21986 21987 28
17590 21986 21988 28
17591 21986 21989 28
17592 21986 21990 28
17593 21991 21992 28
17594 21991 21993 28
17595 21991 21994 28
17596 21991 21995 28
17597 21996 21997 28
17598 21996 21998 28
17599 21996 21999 28
17600 21996 22000 28
17601 22001 22002 28
17602 22001 22003 28
17603 22001 22004 28
17604 22001 22005 28
17605 22006 22007 28
17606 22006 22008 28
17607 22006 22009 28
17608 22006 22010 28
17609 22011 22012 28
17610 22011 22013 28
17611 22011 22014 28
17612 22011 22015 28
17613 22016 22017 28
17614 22016 22018 28
17615 22016 22019 28
17616 22016 22020 28
17617 22021 22022 28
17618 22021 22023 28
17619 22021 22024 28
17620 22021 22025 28
17621 22026 22027 28
17622 22026 22028 28
17623 22026 22029 28
17624 22026 22030 28
17625 22031 22032 28
17626 22031 22033 28
17627 22031 22034 28
17628 22031 22035 28
17629 22036 22037 28
17630 22036 22038 28
17631 22036 22039 28
17632 22036 22040 28
17633 22041 22042 28
17634 22041 22043 28
17635 22041 22044 28
17636 22041 22045 28
17637 22046 22047 28
17638 22046 22048 28
17639 22046 22049 28
17640 22046 22050 28
17641 22051 22052 28
17642 22051 22053 28
17643 22051 22054 28
17644 22051 22055 28
17645 22056 22057 28
17646 22056 22058 28
17647 22056 22059 28
17648 22056 22060 28
17649 22061 22062 28
17650 22061 22063 28
17651 22061 22064 28
17652 22061 22065 28
17653 22066 22067 28
17654 22066 22068 28
17655 22066 22069 28
17656 22066 22070 28
17657 22071 22072 28
17658 22071 22073 28
17659 22071 22074 28
17660 22071 22075 28
17661 22076 22077 28
17662 22076 22078 28
17663 22076 22079 28
17664 22076 22080 28
17665 22081 22082 28
17666 22081 22083 28
17667 22081 22084 28
17668 22081 22085 28
17669 22086 22087 28
17670 22086 22088 28
17671 22086 22089 28
17672 22086 22090 28
17673 22091 22092 28
17674 22091 22093 28
17675 22091 22094 28
17676 22091 22095 28
17677 22096 22097 28
17678 22096 22098 28
17679 22096 22099 28
17680 22096 22100 28
17681 22101 22102 28
17682 22101 22103 28
17683 22101 22104 28
17684 22101 22105 28
17685 22106 22107 28
17686 22106 22108 28
17687 22106 22109 28
17688 22106 22110 28
17689 22111 22112 28
17690 22111 22113 28
17691 22111 22114 28
17692 22111 22115 28
17693 22116 22117 28
17694 22116 22118 28
17695 22116 22119 28
17696 22116 22120 28
17697 22121 22122 28
17698 22121 22123 28
17699 22121 22124 28
17700 22121 22125 28
17701 22126 22127 28
17702 22126 22128 28
17703 22126 22129 28
17704 22126 22130 28
17705 22131 22132 28
17706 22131 22133 28
17707 22131 22134 28
17708 22131 22135 28
17709 22136 22137 28
17710 22136 22138 28
17711 22136 22139 28
17712 22136 22140 28
17713 22141 22142 28
17714 22141 22143 28
17715 22141 22144 28
17716 22141 22145 28
17717 22146 22147 28
17718 22146 22148 28
17719 22146 22149 28
17720 22146 22150 28
17721 22151 22152 28
17722 22151 22153 28
17723 22151 22154 28
17724 22151 22155 28
17725 22156 22157 28
17726 22156 22158 28
17727 22156 22159 28
17728 22156 22160 28
17729 22161 22162 28
17730 22161 22163 28
17731 22161 22164 28
17732 22161 22165 28
17733 22166 22167 28
17734 22166 22168 28
17735 22166 22169 28
17736 22166 22170 28
17737 22171 22172 28
17738 22171 22173 28
17739 22171 22174 28
17740 22171 22175 28
17741 22176 22177 28
17742 22176 22178 28
17743 22176 22179 28
17744 22176 22180 28
17745 22181 22182 28
17746 22181 22183 28
17747 22181 22184 28
17748 22181 22185 28
17749 22186 22187 28
17750 22186 22188 28
17751 22186 22189 28
17752 22186 22190 28
17753 22191 22192 28
17754 22191 22193 28
17755 22191 22194 28
17756 22191 22195 28
17757 22196 22197 28
17758 22196 22198 28
17759 22196 22199 28
17760 22196 22200 28
17761 22201 22202 28
17762 22201 22203 28
17763 22201 22204 28
17764 22201 22205 28
17765 22206 22207 28
17766 22206 22208 28
17767 22206 22209 28
17768 22206 22210 28
17769 22211 22212 28
17770 22211 22213 28
17771 22211 22214 28
17772 22211 22215 28
17773 22216 22217 28
17774 22216 22218 28
17775 22216 22219 28
17776 22216 22220 28
17777 22221 22222 28
17778 22221 22223 28
17779 22221 22224 28
17780 22221 22225 28
17781 22226 22227 28
17782 22226 22228 28
17783 22226 22229 28
17784 22226 22230 28
17785 22231 22232 28
17786 22231 22233 28
17787 22231 22234 28
17788 22231 22235 28
17789 22236 22237 28
17790 22236 22238 28
17791 22236 22239 28
17792 22236 22240 28
17793 22241 22242 28
17794 22241 22243 28
17795 22241 22244 28
17796 22241 22245 28
17797 22246 22247 28
17798 22246 22248 28
17799 22246 22249 28
17800 22246 22250 28
17801 22251 22252 28
17802 22251 22253 28
17803 22251 22254 28
17804 22251 22255 28
17805 22256 22257 28
17806 22256 22258 28
17807 22256 22259 28
17808 22256 22260 28
17809 22261 22262 28
17810 22261 22263 28
17811 22261 22264 28
17812 22261 22265 28
17813 22266 22267 28
17814 22266 22268 28
17815 22266 22269 28
17816 22266 22270 28
17817 22271 22272 28
17818 22271 22273 28
17819 22271 22274 28
17820 22271 22275 28
17821 22276 22277 28
17822 22276 22278 28
17823 22276 22279 28
17824 22276 22280 28
17825 22281 22282 28
17826 22281 22283 28
17827 22281 22284 28
17828 22281 22285 28
17829 22286 22287 28
17830 22286 22288 28
17831 22286 22289 28
17832 22286 22290 28
17833 22291 22292 28
17834 22291 22293 28
17835 22291 22294 28
17836 22291 22295 28
17837 22296 22297 28
17838 22296 22298 28
17839 22296 22299 28
17840 22296 22300 28
17841 22301 22302 28
17842 22301 22303 28
17843 22301 22304 28
17844 22301 22305 28
17845 22306 22307 28
17846 22306 22308 28
17847 22306 22309 28
17848 22306 22310 28
17849 22311 22312 28
17850 22311 22313 28
17851 22311 22314 28
17852 22311 22315 28
17853 22316 22317 28
17854 22316 22318 28
17855 22316 22319 28
17856 22316 22320 28
17857 22321 22322 28
17858 22321 22323 28
17859 22321 22324 28
17860 22321 22325 28
17861 22326 22327 28
17862 22326 22328 28
17863 22326 22329 28
17864 22326 22330 28
17865 22331 22332 28
17866 22331 22333 28
17867 22331 22334 28
17868 22331 22335 28
17869 22336 22337 28
17870 22336 22338 28
17871 22336 22339 28
17872 22336 22340 28
17873 22341 22342 28
17874 22341 22343 28
17875 22341 22344 28
17876 22341 22345 28
17877 22346 22347 28
17878 22346 22348 28
17879 22346 22349 28
17880 22346 22350 28
17881 22351 22352 28
17882 22351 22353 28
17883 22351 22354 28
17884 22351 22355 28
17885 22356 22357 28
17886 22356 22358 28
17887 22356 22359 28
17888 22356 22360 28
17889 22361 22362 28
17890 22361 22363 28
17891 22361 22364 28
17892 22361 22365 28
17893 22366 22367 28
17894 22366 22368 28
17895 22366 22369 28
17896 22366 22370 28
17897 22371 22372 28
17898 22371 22373 28
17899 22371 22374 28
17900 22371 22375 28
17901 22376 22377 28
17902 22376 22378 28
17903 22376 22379 28
17904 22376 22380 28
17905 22381 22382 28
17906 22381 22383 28
17907 22381 22384 28
17908 22381 22385 28
17909 22386 22387 28
17910 22386 22388 28
17911 22386 22389 28
17912 22386 22390 28
17913 22391 22392 28
17914 22391 22393 28
17915 22391 22394 28
17916 22391 22395 28
17917 22396 22397 28
17918 22396 22398 28
17919 22396 22399 28
17920 22396 22400 28
17921 22401 22402 28
17922 22401 22403 28
17923 22401 22404 28
17924 22401 22405 28
17925 22406 22407 28
17926 22406 22408 28
17927 22406 22409 28
17928 22406 22410 28
17929 22411 22412 28
17930 22411 22413 28
17931 22411 22414 28
17932 22411 22415 28
17933 22416 22417 28
17934 22416 22418 28
17935 22416 22419 28
17936 22416 22420 28
17937 22421 22422 28
17938 22421 22423 28
17939 22421 22424 28
17940 22421 22425 28
17941 22426 22427 28
17942 22426 22428 28
17943 22426 22429 28
17944 22426 22430 28
17945 22431 22432 28
17946 22431 22433 28
17947 22431 22434 28
17948 22431 22435 28
17949 22436 22437 28
17950 22436 22438 28
17951 22436 22439 28
17952 22436 22440 28
17953 22441 22442 28
17954 22441 22443 28
17955 22441 22444 28
17956 22441 22445 28
17957 22446 22447 28
17958 22446 22448 28
17959 22446 22449 28
17960 22446 22450 28
17961 22451 22452 28
17962 22451 22453 28
17963 22451 22454 28
17964 22451 22455 28
17965 22456 22457 28
17966 22456 22458 28
17967 22456 22459 28
17968 22456 22460 28
17969 22461 22462 28
17970 22461 22463 28
17971 22461 22464 28
17972 22461 22465 28
17973 22466 22467 28
17974 22466 22468 28
17975 22466 22469 28
17976 22466 22470 28
17977 22471 22472 28
17978 22471 22473 28
17979 22471 22474 28
17980 22471 22475 28
17981 22476 22477 28
17982 22476 22478 28
17983 22476 22479 28
17984 22476 22480 28
17985 22481 22482 28
17986 22481 22483 28
17987 22481 22484 28
17988 22481 22485 28
17989 22486 22487 28
17990 22486 22488 28
17991 22486 22489 28
17992 22486 22490 28
17993 22491 22492 28
17994 22491 22493 28
17995 22491 22494 28
17996 22491 22495 28
17997 22496 22497 28
17998 22496 22498 28
17999 22496 22499 28
18000 22496 22500 28
18001 22501 22502 28
18002 22501 22503 28
18003 22501 22504 28
18004 22501 22505 28
18005 22506 22507 28
18006 22506 22508 28
18007 22506 22509 28
18008 22506 22510 28
18009 22511 22512 28
18010 22511 22513 28
18011 22511 22514 28
18012 22511 22515 28
18013 22516 22517 28
18014 22516 22518 28
18015 22516 22519 28
18016 22516 22520 28
18017 22521 22522 28
18018 22521 22523 28
18019 22521 22524 28
18020 22521 22525 28
18021 22526 22527 28
18022 22526 22528 28
18023 22526 22529 28
18024 22526 22530 28
18025 22531 22532 28
18026 22531 22533 28
18027 22531 22534 28
18028 22531 22535 28
18029 22536 22537 28
18030 22536 22538 28
18031 22536 22539 28
18032 22536 22540 28
18033 22541 22542 28
18034 22541 22543 28
18035 22541 22544 28
18036 22541 22545 28
18037 22546 22547 28
18038 22546 22548 28
18039 22546 22549 28
18040 22546 22550 28
18041 22551 22552 28
18042 22551 22553 28
18043 22551 22554 28
18044 22551 22555 28
18045 22556 22557 28
18046 22556 22558 28
18047 22556 22559 28
18048 22556 22560 28
18049 22561 22562 28
18050 22561 22563 28
18051 22561 22564 28
18052 22561 22565 28
18053 22566 22567 28
18054 22566 22568 28
18055 22566 22569 28
18056 22566 22570 28
18057 22571 22572 28
18058 22571 22573 28
18059 22571 22574 28
18060 22571 22575 28
18061 22576 22577 28
18062 22576 22578 28
18063 22576 22579 28
18064 22576 22580 28
18065 22581 22582 28
18066 22581 22583 28
18067 22581 22584 28
18068 22581 22585 28
18069 22586 22587 28
18070 22586 22588 28
18071 22586 22589 28
18072 22586 22590 28
18073 22591 22592 28
18074 22591 22593 28
18075 22591 22594 28
18076 22591 22595 28
18077 22596 22597 28
18078 22596 22598 28
18079 22596 22599 28
18080 22596 22600 28
18081 22601 22602 28
18082 22601 22603 28
18083 22601 22604 28
18084 22601 22605 28
18085 22606 22607 28
18086 22606 22608 28
18087 22606 22609 28
18088 22606 22610 28
18089 22611 22612 28
18090 22611 22613 28
18091 22611 22614 28
18092 22611 22615 28
18093 22616 22617 28
18094 22616 22618 28
18095 22616 22619 28
18096 22616 22620 28
18097 22621 22622 28
18098 22621 22623 28
18099 22621 22624 28
18100 22621 22625 28
18101 22626 22627 28
18102 22626 22628 28
18103 22626 22629 28
18104 22626 22630 28
18105 22631 22632 28
18106 22631 22633 28
18107 22631 22634 28
18108 22631 22635 28
18109 22636 22637 28
18110 22636 22638 28
18111 22636 22639 28
18112 22636 22640 28
18113 22641 22642 28
18114 22641 22643 28
18115 22641 22644 28
18116 22641 22645 28
18117 22646 22647 28
18118 22646 22648 28
18119 22646 22649 28
18120 22646 22650 28
18121 22651 22652 28
18122 22651 22653 28
18123 22651 22654 28
18124 22651 22655 28
18125 22656 22657 28
18126 22656 22658 28
18127 22656 22659 28
18128 22656 22660 28
18129 22661 22662 28
18130 22661 22663 28
18131 22661 22664 28
18132 22661 22665 28
18133 22666 22667 28
18134 22666 22668 28
18135 22666 22669 28
18136 22666 22670 28
18137 22671 22672 28
18138 22671 22673 28
18139 22671 22674 28
18140 22671 22675 28
18141 22676 22677 28
18142 22676 22678 28
18143 22676 22679 28
18144 22676 22680 28
18145 22681 22682 28
18146 22681 22683 28
18147 22681 22684 28
18148 22681 22685 28
18149 22686 22687 28
18150 22686 22688 28
18151 22686 22689 28
18152 22686 22690 28
18153 22691 22692 28
18154 22691 22693 28
18155 22691 22694 28
18156 22691 22695 28
18157 22696 22697 28
18158 22696 22698 28
18159 22696 22699 28
18160 22696 22700 28
18161 22701 22702 28
18162 22701 22703 28
18163 22701 22704 28
18164 22701 22705 28
18165 22706 22707 28
18166 22706 22708 28
18167 22706 22709 28
18168 22706 22710 28
18169 22711 22712 28
18170 22711 22713 28
18171 22711 22714 28
18172 22711 22715 28
18173 22716 22717 28
18174 22716 22718 28
18175 22716 22719 28
18176 22716 22720 28
18177 22721 22722 28
18178 22721 22723 28
18179 22721 22724 28
18180 22721 22725 28
18181 22726 22727 28
18182 22726 22728 28
18183 22726 22729 28
18184 22726 22730 28
18185 22731 22732 28
18186 22731 22733 28
18187 22731 22734 28
18188 22731 22735 28
18189 22736 22737 28
18190 22736 22738 28
18191 22736 22739 28
18192 22736 22740 28
18193 22741 22742 28
18194 22741 22743 28
18195 22741 22744 28
18196 22741 22745 28
18197 22746 22747 28
18198 22746 22748 28
18199 22746 22749 28
18200 22746 22750 28
18201 22751 22752 28
18202 22751 22753 28
18203 22751 22754 28
18204 22751 22755 28
18205 22756 22757 28
18206 22756 22758 28
18207 22756 22759 28
18208 22756 22760 28
18209 22761 22762 28
18210 22761 22763 28
18211 22761 22764 28
18212 22761 22765 28
18213 22766 22767 28
18214 22766 22768 28
18215 22766 22769 28
18216 22766 22770 28
18217 22771 22772 28
18218 22771 22773 28
18219 22771 22774 28
18220 22771 22775 28
18221 22776 22777 28
18222 22776 22778 28
18223 22776 22779 28
18224 22776 22780 28
18225 22781 22782 28
18226 22781 22783 28
18227 22781 22784 28
18228 22781 22785 28
18229 22786 22787 28
18230 22786 22788 28
18231 22786 22789 28
18232 22786 22790 28
18233 22791 22792 28
18234 22791 22793 28
18235 22791 22794 28
18236 22791 22795 28
18237 22796 22797 28
18238 22796 22798 28
18239 22796 22799 28
18240 22796 22800 28
18241 22801 22802 28
18242 22801 22803 28
18243 22801 22804 28
18244 22801 22805 28
18245 22806 22807 28
18246 22806 22808 28
18247 22806 22809 28
18248 22806 22810 28
18249 22811 22812 28
18250 22811 22813 28
18251 22811 22814 28
18252 22811 22815 28
18253 22816 22817 28
18254 22816 22818 28
18255 22816 22819 28
18256 22816 22820 28
18257 22821 22822 28
18258 22821 22823 28
18259 22821 22824 28
18260 22821 22825 28
18261 22826 22827 28
18262 22826 22828 28
18263 22826 22829 28
18264 22826 22830 28
18265 22831 22832 28
18266 22831 22833 28
18267 22831 22834 28
18268 22831 22835 28
18269 22836 22837 28
18270 22836 22838 28
18271 22836 22839 28
18272 22836 22840 28
18273 22841 22842 28
18274 22841 22843 28
18275 22841 22844 28
18276 22841 22845 28
18277 22846 22847 28
18278 22846 22848 28
18279 22846 22849 28
18280 22846 22850 28
18281 22851 22852 28
18282 22851 22853 28
18283 22851 22854 28
18284 22851 22855 28
18285 22856 22857 28
18286 22856 22858 28
18287 22856 22859 28
18288 22856 22860 28
18289 22861 22862 28
18290 22861 22863 28
18291 22861 22864 28
18292 22861 22865 28
18293 22866 22867 28
18294 22866 22868 28
18295 22866 22869 28
18296 22866 22870 28
18297 22871 22872 28
18298 22871 22873 28
18299 22871 22874 28
18300 22871 22875 28
18301 22876 22877 28
18302 22876 22878 28
18303 22876 22879 28
18304 22876 22880 28
18305 22881 22882 28
18306 22881 22883 28
18307 22881 22884 28
18308 22881 22885 28
18309 22886 22887 28
18310 22886 22888 28
18311 22886 22889 28
18312 22886 22890 28
18313 22891 22892 28
18314 22891 22893 28
18315 22891 22894 28
18316 22891 22895 28
18317 22896 22897 28
18318 22896 22898 28
18319 22896 22899 28
18320 22896 22900 28
18321 22901 22902 28
18322 22901 22903 28
18323 22901 22904 28
18324 22901 22905 28
18325 22906 22907 28
18326 22906 22908 28
18327 22906 22909 28
18328 22906 22910 28
18329 22911 22912 28
18330 22911 22913 28
18331 22911 22914 28
18332 22911 22915 28
18333 22916 22917 28
18334 22916 22918 28
18335 22916 22919 28
18336 22916 22920 28
18337 22921 22922 28
18338 22921 22923 28
18339 22921 22924 28
18340 22921 22925 28
18341 22926 22927 28
18342 22926 22928 28
18343 22926 22929 28
18344 22926 22930 28
18345 22931 22932 28
18346 22931 22933 28
18347 22931 22934 28
18348 22931 22935 28
18349 22936 22937 28
18350 22936 22938 28
18351 22936 22939 28
18352 22936 22940 28
18353 22941 22942 28
18354 22941 22943 28
18355 22941 22944 28
18356 22941 22945 28
18357 22946 22947 28
18358 22946 22948 28
18359 22946 22949 28
18360 22946 22950 28
18361 22951 22952 28
18362 22951 22953 28
18363 22951 22954 28
18364 22951 22955 28
18365 22956 22957 28
18366 22956 22958 28
18367 22956 22959 28
18368 22956 22960 28
18369 22961 22962 28
18370 22961 22963 28
18371 22961 22964 28
18372 22961 22965 28
18373 22966 22967 28
18374 22966 22968 28
18375 22966 22969 28
18376 22966 22970 28
18377 22971 22972 28
18378 22971 22973 28
18379 22971 22974 28
18380 22971 22975 28
18381 22976 22977 28
18382 22976 22978 28
18383 22976 22979 28
18384 22976 22980 28
18385 22981 22982 28
18386 22981 22983 28
18387 22981 22984 28
18388 22981 22985 28
18389 22986 22987 28
18390 22986 22988 28
18391 22986 22989 28
18392 22986 22990 28
18393 22991 22992 28
18394 22991 22993 28
18395 22991 22994 28
18396 22991 22995 28
18397 22996 22997 28
18398 22996 22998 28
18399 22996 22999 28
18400 22996 23000 28
18401 23001 23002 28
18402 23001 23003 28
18403 23001 23004 28
18404 23001 23005 28
18405 23006 23007 28
18406 23006 23008 28
18407 23006 23009 28
18408 23006 23010 28
18409 23011 23012 28
18410 23011 23013 28
18411 23011 23014 28
18412 23011 23015 28
18413 23016 23017 28
18414 23016 23018 28
18415 23016 23019 28
18416 23016 23020 28
18417 23021 23022 28
18418 23021 23023 28
18419 23021 23024 28
18420 23021 23025 28
18421 23026 23027 28
18422 23026 23028 28
18423 23026 23029 28
18424 23026 23030 28
18425 23031 23032 28
18426 23031 23033 28
18427 23031 23034 28
18428 23031 23035 28
18429 23036 23037 28
18430 23036 23038 28
18431 23036 23039 28
18432 23036 23040 28
18433 23041 23042 28
18434 23041 23043 28
18435 23041 23044 28
18436 23041 23045 28
18437 23046 23047 28
18438 23046 23048 28
18439 23046 23049 28
18440 23046 23050 28
18441 23051 23052 28
18442 23051 23053 28
18443 23051 23054 28
18444 23051 23055 28
18445 23056 23057 28
18446 23056 23058 28
18447 23056 23059 28
18448 23056 23060 28
18449 23061 23062 28
18450 23061 23063 28
18451 23061 23064 28
18452 23061 23065 28
18453 23066 23067 28
18454 23066 23068 28
18455 23066 23069 28
18456 23066 23070 28
18457 23071 23072 28
18458 23071 23073 28
18459 23071 23074 28
18460 23071 23075 28
18461 23076 23077 28
18462 23076 23078 28
18463 23076 23079 28
18464 23076 23080 28
18465 23081 23082 28
18466 23081 23083 28
18467 23081 23084 28
18468 23081 23085 28
18469 23086 23087 28
18470 23086 23088 28
18471 23086 23089 28
18472 23086 23090 28
18473 23091 23092 28
18474 23091 23093 28
18475 23091 23094 28
18476 23091 23095 28
18477 23096 23097 28
18478 23096 23098 28
18479 23096 23099 28
18480 23096 23100 28
18481 23101 23102 28
18482 23101 23103 28
18483 23101 23104 28
18484 23101 23105 28
18485 23106 23107 28
18486 23106 23108 28
18487 23106 23109 28
18488 23106 23110 28
18489 23111 23112 28
18490 23111 23113 28
18491 23111 23114 28
18492 23111 23115 28
18493 23116 23117 28
18494 23116 23118 28
18495 23116 23119 28
18496 23116 23120 28
18497 23121 23122 28
18498 23121 23123 28
18499 23121 23124 28
18500 23121 23125 28
18501 23126 23127 28
18502 23126 23128 28
18503 23126 23129 28
18504 23126 23130 28
18505 23131 23132 28
18506 23131 23133 28
18507 23131 23134 28
18508 23131 23135 28
18509 23136 23137 28
18510 23136 23138 28
18511 23136 23139 28
18512 23136 23140 28
18513 23141 23142 28
18514 23141 23143 28
18515 23141 23144 28
18516 23141 23145 28
18517 23146 23147 28
18518 23146 23148 28
18519 23146 23149 28
18520 23146 23150 28
18521 23151 23152 28
18522 23151 23153 28
18523 23151 23154 28
18524 23151 23155 28
18525 23156 23157 28
18526 23156 23158 28
18527 23156 23159 28
18528 23156 23160 28
18529 23161 23162 28
18530 23161 23163 28
18531 23161 23164 28
18532 23161 23165 28
18533 23166 23167 28
18534 23166 23168 28
18535 23166 23169 28
18536 23166 23170 28
18537 23171 23172 28
18538 23171 23173 28
18539 23171 23174 28
18540 23171 23175 28
18541 23176 23177 28
18542 23176 23178 28
18543 23176 23179 28
18544 23176 23180 28
18545 23181 23182 28
18546 23181 23183 28
18547 23181 23184 28
18548 23181 23185 28
18549 23186 23187 28
18550 23186 23188 28
18551 23186 23189 28
18552 23186 23190 28
18553 23191 23192 28
18554 23191 23193 28
18555 23191 23194 28
18556 23191 23195 28
18557 23196 23197 28
18558 23196 23198 28
18559 23196 23199 28
18560 23196 23200 28
18561 23201 23202 28
18562 23201 23203 28
18563 23201 23204 28
18564 23201 23205 28
18565 23206 23207 28
18566 23206 23208 28
18567 23206 23209 28
18568 23206 23210 28
18569 23211 23212 28
18570 23211 23213 28
18571 23211 23214 28
18572 23211 23215 28
18573 23216 23217 28
18574 23216 23218 28
18575 23216 23219 28
18576 23216 23220 28
18577 23221 23222 28
18578 23221 23223 28
18579 23221 23224 28
18580 23221 23225 28
18581 23226 23227 28
18582 23226 23228 28
18583 23226 23229 28
18584 23226 23230 28
18585 23231 23232 28
18586 23231 23233 28
18587 23231 23234 28
18588 23231 23235 28
18589 23236 23237 28
18590 23236 23238 28
18591 23236 23239 28
18592 23236 23240 28
18593 23241 23242 28
18594 23241 23243 28
18595 23241 23244 28
18596 23241 23245 28
18597 23246 23247 28
18598 23246 23248 28
18599 23246 23249 28
18600 23246 23250 28
18601 23251 23252 28
18602 23251 23253 28
18603 23251 23254 28
18604 23251 23255 28
18605 23256 23257 28
18606 23256 23258 28
18607 23256 23259 28
18608 23256 23260 28
18609 23261 23262 28
18610 23261 23263 28
18611 23261 23264 28
18612 23261 23265 28
18613 23266 23267 28
18614 23266 23268 28
18615 23266 23269 28
18616 23266 23270 28
18617 23271 23272 28
18618 23271 23273 28
18619 23271 23274 28
18620 23271 23275 28
18621 23276 23277 28
18622 23276 23278 28
18623 23276 23279 28
18624 23276 23280 28
18625 23281 23282 28
18626 23281 23283 28
18627 23281 23284 28
18628 23281 23285 28
18629 23286 23287 28
18630 23286 23288 28
18631 23286 23289 28
18632 23286 23290 28
18633 23291 23292 28
18634 23291 23293 28
18635 23291 23294 28
18636 23291 23295 28
18637 23296 23297 28
18638 23296 23298 28
18639 23296 23299 28
18640 23296 23300 28
18641 23301 23302 28
18642 23301 23303 28
18643 23301 23304 28
18644 23301 23305 28
18645 23306 23307 28
18646 23306 23308 28
18647 23306 23309 28
18648 23306 23310 28
18649 23311 23312 28
18650 23311 23313 28
18651 23311 23314 28
18652 23311 23315 28
18653 23316 23317 28
18654 23316 23318 28
18655 23316 23319 28
18656 23316 23320 28
18657 23321 23322 28
18658 23321 23323 28
18659 23321 23324 28
18660 23321 23325 28
18661 23326 23327 28
18662 23326 23328 28
18663 23326 23329 28
18664 23326 23330 28
18665 23331 23332 28
18666 23331 23333 28
18667 23331 23334 28
18668 23331 23335 28
18669 23336 23337 28
18670 23336 23338 28
18671 23336 23339 28
18672 23336 23340 28
18673 23341 23342 28
18674 23341 23343 28
18675 23341 23344 28
18676 23341 23345 28
18677 23346 23347 28
18678 23346 23348 28
18679 23346 23349 28
18680 23346 23350 28
18681 23351 23352 28
18682 23351 23353 28
18683 23351 23354 28
18684 23351 23355 28
18685 23356 23357 28
18686 23356 23358 28
18687 23356 23359 28
18688 23356 23360 28
18689 23361 23362 28
18690 23361 23363 28
18691 23361 23364 28
18692 23361 23365 28
18693 23366 23367 28
18694 23366 23368 28
18695 23366 23369 28
18696 23366 23370 28
18697 23371 23372 28
18698 23371 23373 28
18699 23371 23374 28
18700 23371 23375 28
18701 23376 23377 28
18702 23376 23378 28
18703 23376 23379 28
18704 23376 23380 28
18705 23381 23382 28
18706 23381 23383 28
18707 23381 23384 28
18708 23381 23385 28
18709 23386 23387 28
18710 23386 23388 28
18711 23386 23389 28
18712 23386 23390 28
18713 23391 23392 28
18714 23391 23393 28
18715 23391 23394 28
18716 23391 23395 28
18717 23396 23397 28
18718 23396 23398 28
18719 23396 23399 28
18720 23396 23400 28
18721 23401 23402 28
18722 23401 23403 28
18723 23401 23404 28
18724 23401 23405 28
18725 23406 23407 28
18726 23406 23408 28
18727 23406 23409 28
18728 23406 23410 28
18729 23411 23412 28
18730 23411 23413 28
18731 23411 23414 28
18732 23411 23415 28
18733 23416 23417 28
18734 23416 23418 28
18735 23416 23419 28
18736 23416 23420 28
18737 23421 23422 28
18738 23421 23423 28
18739 23421 23424 28
18740 23421 23425 28
18741 23426 23427 28
18742 23426 23428 28
18743 23426 23429 28
18744 23426 23430 28
18745 23431 23432 28
18746 23431 23433 28
18747 23431 23434 28
18748 23431 23435 28
18749 23436 23437 28
18750 23436 23438 28
18751 23436 23439 28
18752 23436 23440 28
18753 23441 23442 28
18754 23441 23443 28
18755 23441 23444 28
18756 23441 23445 28
18757 23446 23447 28
18758 23446 23448 28
18759 23446 23449 28
18760 23446 23450 28
18761 23451 23452 28
18762 23451 23453 28
18763 23451 23454 28
18764 23451 23455 28
18765 23456 23457 28
18766 23456 23458 28
18767 23456 23459 28
18768 23456 23460 28
18769 23461 23462 28
18770 23461 23463 28
18771 23461 23464 28
18772 23461 23465 28
18773 23466 23467 28
18774 23466 23468 28
18775 23466 23469 28
18776 23466 23470 28
18777 23471 23472 28
18778 23471 23473 28
18779 23471 23474 28
18780 23471 23475 28
18781 23476 23477 28
18782 23476 23478 28
18783 23476 23479 28
18784 23476 23480 28
18785 23481 23482 28
18786 23481 23483 28
18787 23481 23484 28
18788 23481 23485 28
18789 23486 23487 28
18790 23486 23488 28
18791 23486 23489 28
18792 23486 23490 28
18793 23491 23492 28
18794 23491 23493 28
18795 23491 23494 28
18796 23491 23495 28
18797 23496 23497 28
18798 23496 23498 28
18799 23496 23499 28
18800 23496 23500 28
18801 23501 23502 28
18802 23501 23503 28
18803 23501 23504 28
18804 23501 23505 28
18805 23506 23507 28
18806 23506 23508 28
18807 23506 23509 28
18808 23506 23510 28
18809 23511 23512 28
18810 23511 23513 28
18811 23511 23514 28
18812 23511 23515 28
18813 23516 23517 28
18814 23516 23518 28
18815 23516 23519 28
18816 23516 23520 28
18817 23521 23522 28
18818 23521 23523 28
18819 23521 23524 28
18820 23521 23525 28
18821 23526 23527 28
18822 23526 23528 28
18823 23526 23529 28
18824 23526 23530 28
18825 23531 23532 28
18826 23531 23533 28
18827 23531 23534 28
18828 23531 23535 28
18829 23536 23537 28
18830 23536 23538 28
18831 23536 23539 28
18832 23536 23540 28
18833 23541 23542 28
18834 23541 23543 28
18835 23541 23544 28
18836 23541 23545 28
18837 23546 23547 28
18838 23546 23548 28
18839 23546 23549 28
18840 23546 23550 28
18841 23551 23552 28
18842 23551 23553 28
18843 23551 23554 28
18844 23551 23555 28
18845 23556 23557 28
18846 23556 23558 28
18847 23556 23559 28
18848 23556 23560 28
18849 23561 23562 28
18850 23561 23563 28
18851 23561 23564 28
18852 23561 23565 28
18853 23566 23567 28
18854 23566 23568 28
18855 23566 23569 28
18856 23566 23570 28
18857 23571 23572 28
18858 23571 23573 28
18859 23571 23574 28
18860 23571 23575 28
18861 23576 23577 28
18862 23576 23578 28
18863 23576 23579 28
18864 23576 23580 28
18865 23581 23582 28
18866 23581 23583 28
18867 23581 23584 28
18868 23581 23585 28
18869 23586 23587 28
18870 23586 23588 28
18871 23586 23589 28
18872 23586 23590 28
18873 23591 23592 28
18874 23591 23593 28
18875 23591 23594 28
18876 23591 23595 28
18877 23596 23597 28
18878 23596 23598 28
18879 23596 23599 28
18880 23596 23600 28
18881 23601 23602 28
18882 23601 23603 28
18883 23601 23604 28
18884 23601 23605 28
18885 23606 23607 28
18886 23606 23608 28
18887 23606 23609 28
18888 23606 23610 28
18889 23611 23612 28
18890 23611 23613 28
18891 23611 23614 28
18892 23611 23615 28
18893 23616 23617 28
18894 23616 23618 28
18895 23616 23619 28
18896 23616 23620 28
18897 23621 23622 28
18898 23621 23623 28
18899 23621 23624 28
18900 23621 23625 28
18901 23626 23627 28
18902 23626 23628 28
18903 23626 23629 28
18904 23626 23630 28
18905 23631 23632 28
18906 23631 23633 28
18907 23631 23634 28
18908 23631 23635 28
18909 23636 23637 28
18910 23636 23638 28
18911 23636 23639 28
18912 23636 23640 28
18913 23641 23642 28
18914 23641 23643 28
18915 23641 23644 28
18916 23641 23645 28
18917 23646 23647 28
18918 23646 23648 28
18919 23646 23649 28
18920 23646 23650 28
18921 23651 23652 28
18922 23651 23653 28
18923 23651 23654 28
18924 23651 23655 28
18925 23656 23657 28
18926 23656 23658 28
18927 23656 23659 28
18928 23656 23660 28
18929 23661 23662 28
18930 23661 23663 28
18931 23661 23664 28
18932 23661 23665 28
18933 23666 23667 28
18934 23666 23668 28
18935 23666 23669 28
18936 23666 23670 28
18937 23671 23672 28
18938 23671 23673 28
18939 23671 23674 28
18940 23671 23675 28
18941 23676 23677 28
18942 23676 23678 28
18943 23676 23679 28
18944 23676 23680 28
18945 23681 23682 28
18946 23681 23683 28
18947 23681 23684 28
18948 23681 23685 28
18949 23686 23687 28
18950 23686 23688 28
18951 23686 23689 28
18952 23686 23690 28
18953 23691 23692 28
18954 23691 23693 28
18955 23691 23694 28
18956 23691 23695 28
18957 23696 23697 28
18958 23696 23698 28
18959 23696 23699 28
18960 23696 23700 28
18961 23701 23702 28
18962 23701 23703 28
18963 23701 23704 28
18964 23701 23705 28
18965 23706 23707 28
18966 23706 23708 28
18967 23706 23709 28
18968 23706 23710 28
18969 23711 23712 28
18970 23711 23713 28
18971 23711 23714 28
18972 23711 23715 28
18973 23716 23717 28
18974 23716 23718 28
18975 23716 23719 28
18976 23716 23720 28
18977 23721 23722 28
18978 23721 23723 28
18979 23721 23724 28
18980 23721 23725 28
18981 23726 23727 28
18982 23726 23728 28
18983 23726 23729 28
18984 23726 23730 28
18985 23731 23732 28
18986 23731 23733 28
18987 23731 23734 28
18988 23731 23735 28
18989 23736 23737 28
18990 23736 23738 28
18991 23736 23739 28
18992 23736 23740 28
18993 23741 23742 28
18994 23741 23743 28
18995 23741 23744 28
18996 23741 23745 28
18997 23746 23747 28
18998 23746 23748 28
18999 23746 23749 28
19000 23746 23750 28
19001 23751 23752 28
19002 23751 23753 28
19003 23751 23754 28
19004 23751 23755 28
19005 23756 23757 28
19006 23756 23758 28
19007 23756 23759 28
19008 23756 23760 28
19009 23761 23762 28
19010 23761 23763 28
19011 23761 23764 28
19012 23761 23765 28
19013 23766 23767 28
19014 23766 23768 28
19015 23766 23769 28
19016 23766 23770 28
19017 23771 23772 28
19018 23771 23773 28
19019 23771 23774 28
19020 23771 23775 28
19021 23776 23777 28
19022 23776 23778 28
19023 23776 23779 28
19024 23776 23780 28
19025 23781 23782 28
19026 23781 23783 28
19027 23781 23784 28
19028 23781 23785 28
19029 23786 23787 28
19030 23786 23788 28
19031 23786 23789 28
19032 23786 23790 28
19033 23791 23792 28
19034 23791 23793 28
19035 23791 23794 28
19036 23791 23795 28
19037 23796 23797 28
19038 23796 23798 28
19039 23796 23799 28
19040 23796 23800 28
19041 23801 23802 28
19042 23801 23803 28
19043 23801 23804 28
19044 23801 23805 28
19045 23806 23807 28
19046 23806 23808 28
19047 23806 23809 28
19048 23806 23810 28
19049 23811 23812 28
19050 23811 23813 28
19051 23811 23814 28
19052 23811 23815 28
19053 23816 23817 28
19054 23816 23818 28
19055 23816 23819 28
19056 23816 23820 28
19057 23821 23822 28
19058 23821 23823 28
19059 23821 23824 28
19060 23821 23825 28
19061 23826 23827 28
19062 23826 23828 28
19063 23826 23829 28
19064 23826 23830 28
19065 23831 23832 28
19066 23831 23833 28
19067 23831 23834 28
19068 23831 23835 28
19069 23836 23837 28
19070 23836 23838 28
19071 23836 23839 28
19072 23836 23840 28
19073 23841 23842 28
19074 23841 23843 28
19075 23841 23844 28
19076 23841 23845 28
19077 23846 23847 28
19078 23846 23848 28
19079 23846 23849 28
19080 23846 23850 28
19081 23851 23852 28
19082 23851 23853 28
19083 23851 23854 28
19084 23851 23855 28
19085 23856 23857 28
19086 23856 23858 28
19087 23856 23859 28
19088 23856 23860 28
19089 23861 23862 28
19090 23861 23863 28
19091 23861 23864 28
19092 23861 23865 28
19093 23866 23867 28
19094 23866 23868 28
19095 23866 23869 28
19096 23866 23870 28
19097 23871 23872 28
19098 23871 23873 28
19099 23871 23874 28
19100 23871 23875 28
19101 23876 23877 28
19102 23876 23878 28
19103 23876 23879 28
19104 23876 23880 28
19105 23881 23882 28
19106 23881 23883 28
19107 23881 23884 28
19108 23881 23885 28
19109 23886 23887 28
19110 23886 23888 28
19111 23886 23889 28
19112 23886 23890 28
19113 23891 23892 28
19114 23891 23893 28
19115 23891 23894 28
19116 23891 23895 28
19117 23896 23897 28
19118 23896 23898 28
19119 23896 23899 28
19120 23896 23900 28
19121 23901 23902 28
19122 23901 23903 28
19123 23901 23904 28
19124 23901 23905 28
19125 23906 23907 28
19126 23906 23908 28
19127 23906 23909 28
19128 23906 23910 28
19129 23911 23912 28
19130 23911 23913 28
19131 23911 23914 28
19132 23911 23915 28
19133 23916 23917 28
19134 23916 23918 28
19135 23916 23919 28
19136 23916 23920 28
19137 23921 23922 28
19138 23921 23923 28
19139 23921 23924 28
19140 23921 23925 28
19141 23926 23927 28
19142 23926 23928 28
19143 23926 23929 28
19144 23926 23930 28
19145 23931 23932 28
19146 23931 23933 28
19147 23931 23934 28
19148 23931 23935 28
19149 23936 23937 28
19150 23936 23938 28
19151 23936 23939 28
19152 23936 23940 28
19153 23941 23942 28
19154 23941 23943 28
19155 23941 23944 28
19156 23941 23945 28
19157 23946 23947 28
19158 23946 23948 28
19159 23946 23949 28
19160 23946 23950 28
19161 23951 23952 28
19162 23951 23953 28
19163 23951 23954 28
19164 23951 23955 28
19165 23956 23957 28
19166 23956 23958 28
19167 23956 23959 28
19168 23956 23960 28
19169 23961 23962 28
19170 23961 23963 28
19171 23961 23964 28
19172 23961 23965 28
19173 23966 23967 28
19174 23966 23968 28
19175 23966 23969 28
19176 23966 23970 28
19177 23971 23972 28
19178 23971 23973 28
19179 23971 23974 28
19180 23971 23975 28
19181 23976 23977 28
19182 23976 23978 28
19183 23976 23979 28
19184 23976 23980 28
19185 23981 23982 28
19186 23981 23983 28
19187 23981 23984 28
19188 23981 23985 28
19189 23986 23987 28
19190 23986 23988 28
19191 23986 23989 28
19192 23986 23990 28
19193 23991 23992 28
19194 23991 23993 28
19195 23991 23994 28
19196 23991 23995 28
19197 23996 23997 28
19198 23996 23998 28
19199 23996 23999 28
19200 23996 24000 28
19201 24001 24002 28
19202 24001 24003 28
19203 24001 24004 28
19204 24001 24005 28
19205 24006 24007 28
19206 24006 24008 28
19207 24006 24009 28
19208 24006 24010 28
19209 24011 24012 28
19210 24011 24013 28
19211 24011 24014 28
19212 24011 24015 28
19213 24016 24017 28
19214 24016 24018 28
19215 24016 24019 28
19216 24016 24020 28
19217 24021 24022 28
19218 24021 24023 28
19219 24021 24024 28
19220 24021 24025 28
19221 24026 24027 28
19222 24026 24028 28
19223 24026 24029 28
19224 24026 24030 28
19225 24031 24032 28
19226 24031 24033 28
19227 24031 24034 28
19228 24031 24035 28
19229 24036 24037 28
19230 24036 24038 28
19231 24036 24039 28
19232 24036 24040 28
19233 24041 24042 28
19234 24041 24043 28
19235 24041 24044 28
19236 24041 24045 28
19237 24046 24047 28
19238 24046 24048 28
19239 24046 24049 28
19240 24046 24050 28
19241 24051 24052 28
19242 24051 24053 28
19243 24051 24054 28
19244 24051 24055 28
19245 24056 24057 28
19246 24056 24058 28
19247 24056 24059 28
19248 24056 24060 28
19249 24061 24062 28
19250 24061 24063 28
19251 24061 24064 28
19252 24061 24065 28
19253 24066 24067 28
19254 24066 24068 28
19255 24066 24069 28
19256 24066 24070 28
19257 24071 24072 28
19258 24071 24073 28
19259 24071 24074 28
19260 24071 24075 28
19261 24076 24077 28
19262 24076 24078 28
19263 24076 24079 28
19264 24076 24080 28
19265 24081 24082 28
19266 24081 24083 28
19267 24081 24084 28
19268 24081 24085 28
19269 24086 24087 28
19270 24086 24088 28
19271 24086 24089 28
19272 24086 24090 28
19273 24091 24092 28
19274 24091 24093 28
19275 24091 24094 28
19276 24091 24095 28
19277 24096 24097 28
19278 24096 24098 28
19279 24096 24099 28
19280 24096 24100 28
19281 24101 24102 28
19282 24101 24103 28
19283 24101 24104 28
19284 24101 24105 28
19285 24106 24107 28
19286 24106 24108 28
19287 24106 24109 28
19288 24106 24110 28
19289 24111 24112 28
19290 24111 24113 28
19291 24111 24114 28
19292 24111 24115 28
19293 24116 24117 28
19294 24116 24118 28
19295 24116 24119 28
19296 24116 24120 28
19297 24121 24122 28
19298 24121 24123 28
19299 24121 24124 28
19300 24121 24125 28
19301 24126 24127 28
19302 24126 24128 28
19303 24126 24129 28
19304 24126 24130 28
19305 24131 24132 28
19306 24131 24133 28
19307 24131 24134 28
19308 24131 24135 28
19309 24136 24137 28
19310 24136 24138 28
19311 24136 24139 28
19312 24136 24140 28
19313 24141 24142 28
19314 24141 24143 28
19315 24141 24144 28
19316 24141 24145 28
19317 24146 24147 28
19318 24146 24148 28
19319 24146 24149 28
19320 24146 24150 28
19321 24151 24152 28
19322 24151 24153 28
19323 24151 24154 28
19324 24151 24155 28
19325 24156 24157 28
19326 24156 24158 28
19327 24156 24159 28
19328 24156 24160 28
19329 24161 24162 28
19330 24161 24163 28
19331 24161 24164 28
19332 24161 24165 28
19333 24166 24167 28
19334 24166 24168 28
19335 24166 24169 28
19336 24166 24170 28
19337 24171 24172 28
19338 24171 24173 28
19339 24171 24174 28
19340 24171 24175 28
19341 24176 24177 28
19342 24176 24178 28
19343 24176 24179 28
19344 24176 24180 28
19345 24181 24182 28
19346 24181 24183 28
19347 24181 24184 28
19348 24181 24185 28
19349 24186 24187 28
19350 24186 24188 28
19351 24186 24189 28
19352 24186 24190 28
19353 24191 24192 28
19354 24191 24193 28
19355 24191 24194 28
19356 24191 24195 28
19357 24196 24197 28
19358 24196 24198 28
19359 24196 24199 28
19360 24196 24200 28
19361 24201 24202 28
19362 24201 24203 28
19363 24201 24204 28
19364 24201 24205 28
19365 24206 24207 28
19366 24206 24208 28
19367 24206 24209 28
19368 24206 24210 28
19369 24211 24212 28
19370 24211 24213 28
19371 24211 24214 28
19372 24211 24215 28
19373 24216 24217 28
19374 24216 24218 28
19375 24216 24219 28
19376 24216 24220 28
19377 24221 24222 28
19378 24221 24223 28
19379 24221 24224 28
19380 24221 24225 28
19381 24226 24227 28
19382 24226 24228 28
19383 24226 24229 28
19384 24226 24230 28
19385 24231 24232 28
19386 24231 24233 28
19387 24231 24234 28
19388 24231 24235 28
19389 24236 24237 28
19390 24236 24238 28
19391 24236 24239 28
19392 24236 24240 28
19393 24241 24242 28
19394 24241 24243 28
19395 24241 24244 28
19396 24241 24245 28
19397 24246 24247 28
19398 24246 24248 28
19399 24246 24249 28
19400 24246 24250 28
19401 24251 24252 28
19402 24251 24253 28
19403 24251 24254 28
19404 24251 24255 28
19405 24256 24257 28
19406 24256 24258 28
19407 24256 24259 28
19408 24256 24260 28
19409 24261 24262 28
19410 24261 24263 28
19411 24261 24264 28
19412 24261 24265 28
19413 24266 24267 28
19414 24266 24268 28
19415 24266 24269 28
19416 24266 24270 28
19417 24271 24272 28
19418 24271 24273 28
19419 24271 24274 28
19420 24271 24275 28
19421 24276 24277 28
19422 24276 24278 28
19423 24276 24279 28
19424 24276 24280 28
19425 24281 24282 28
19426 24281 24283 28
19427 24281 24284 28
19428 24281 24285 28
19429 24286 24287 28
19430 24286 24288 28
19431 24286 24289 28
19432 24286 24290 28
19433 24291 24292 28
19434 24291 24293 28
19435 24291 24294 28
19436 24291 24295 28
19437 24296 24297 28
19438 24296 24298 28
19439 24296 24299 28
19440 24296 24300 28
19441 24301 24302 28
19442 24301 24303 28
19443 24301 24304 28
19444 24301 24305 28
19445 24306 24307 28
19446 24306 24308 28
19447 24306 24309 28
19448 24306 24310 28
19449 24311 24312 28
19450 24311 24313 28
19451 24311 24314 28
19452 24311 24315 28
19453 24316 24317 28
19454 24316 24318 28
19455 24316 24319 28
19456 24316 24320 28
19457 24321 24322 28
19458 24321 24323 28
19459 24321 24324 28
19460 24321 24325 28
19461 24326 24327 28
19462 24326 24328 28
19463 24326 24329 28
19464 24326 24330 28
19465 24331 24332 28
19466 24331 24333 28
19467 24331 24334 28
19468 24331 24335 28
19469 24336 24337 28
19470 24336 24338 28
19471 24336 24339 28
19472 24336 24340 28
19473 24341 24342 28
19474 24341 24343 28
19475 24341 24344 28
19476 24341 24345 28
19477 24346 24347 28
19478 24346 24348 28
19479 24346 24349 28
19480 24346 24350 28
19481 24351 24352 28
19482 24351 24353 28
19483 24351 24354 28
19484 24351 24355 28
19485 24356 24357 28
19486 24356 24358 28
19487 24356 24359 28
19488 24356 24360 28
19489 24361 24362 28
19490 24361 24363 28
19491 24361 24364 28
19492 24361 24365 28
19493 24366 24367 28
19494 24366 24368 28
19495 24366 24369 28
19496 24366 24370 28
19497 24371 24372 28
19498 24371 24373 28
19499 24371 24374 28
19500 24371 24375 28
19501 24376 24377 28
19502 24376 24378 28
19503 24376 24379 28
19504 24376 24380 28
19505 24381 24382 28
19506 24381 24383 28
19507 24381 24384 28
19508 24381 24385 28
19509 24386 24387 28
19510 24386 24388 28
19511 24386 24389 28
19512 24386 24390 28
19513 24391 24392 28
19514 24391 24393 28
19515 24391 24394 28
19516 24391 24395 28
19517 24396 24397 28
19518 24396 24398 28
19519 24396 24399 28
19520 24396 24400 28
19521 24401 24402 28
19522 24401 24403 28
19523 24401 24404 28
19524 24401 24405 28
19525 24406 24407 28
19526 24406 24408 28
19527 24406 24409 28
19528 24406 24410 28
19529 24411 24412 28
19530 24411 24413 28
19531 24411 24414 28
19532 24411 24415 28
19533 24416 24417 28
19534 24416 24418 28
19535 24416 24419 28
19536 24416 24420 28
19537 24421 24422 28
19538 24421 24423 28
19539 24421 24424 28
19540 24421 24425 28
19541 24426 24427 28
19542 24426 24428 28
19543 24426 24429 28
19544 24426 24430 28
19545 24431 24432 28
19546 24431 24433 28
19547 24431 24434 28
19548 24431 24435 28
19549 24436 24437 28
19550 24436 24438 28
19551 24436 24439 28
19552 24436 24440 28
19553 24441 24442 28
19554 24441 24443 28
19555 24441 24444 28
19556 24441 24445 28
19557 24446 24447 28
19558 24446 24448 28
19559 24446 24449 28
19560 24446 24450 28
19561 24451 24452 28
19562 24451 24453 28
19563 24451 24454 28
19564 24451 24455 28
19565 24456 24457 28
19566 24456 24458 28
19567 24456 24459 28
19568 24456 24460 28
19569 24461 24462 28
19570 24461 24463 28
19571 24461 24464 28
19572 24461 24465 28
19573 24466 24467 28
19574 24466 24468 28
19575 24466 24469 28
19576 24466 24470 28
19577 24471 24472 28
19578 24471 24473 28
19579 24471 24474 28
19580 24471 24475 28
19581 24476 24477 28
19582 24476 24478 28
19583 24476 24479 28
19584 24476 24480 28
19585 24481 24482 28
19586 24481 24483 28
19587 24481 24484 28
19588 24481 24485 28
19589 24486 24487 28
19590 24486 24488 28
19591 24486 24489 28
19592 24486 24490 28
19593 24491 24492 28
19594 24491 24493 28
19595 24491 24494 28
19596 24491 24495 28
19597 24496 24497 28
19598 24496 24498 28
19599 24496 24499 28
19600 24496 24500 28
19601 24501 24502 28
19602 24501 24503 28
19603 24501 24504 28
19604 24501 24505 28
19605 24506 24507 28
19606 24506 24508 28
19607 24506 24509 28
19608 24506 24510 28
19609 24511 24512 28
19610 24511 24513 28
19611 24511 24514 28
19612 24511 24515 28
19613 24516 24517 28
19614 24516 24518 28
19615 24516 24519 28
19616 24516 24520 28
19617 24521 24522 28
19618 24521 24523 28
19619 24521 24524 28
19620 24521 24525 28
19621 24526 24527 28
19622 24526 24528 28
19623 24526 24529 28
19624 24526 24530 28
19625 24531 24532 28
19626 24531 24533 28
19627 24531 24534 28
19628 24531 24535 28
19629 24536 24537 28
19630 24536 24538 28
19631 24536 24539 28
19632 24536 24540 28
19633 24541 24542 28
19634 24541 24543 28
19635 24541 24544 28
19636 24541 24545 28
19637 24546 24547 28
19638 24546 24548 28
19639 24546 24549 28
19640 24546 24550 28
19641 24551 24552 28
19642 24551 24553 28
19643 24551 24554 28
19644 24551 24555 28
19645 24556 24557 28
19646 24556 24558 28
19647 24556 24559 28
19648 24556 24560 28
19649 24561 24562 28
19650 24561 24563 28
19651 24561 24564 28
19652 24561 24565 28
19653 24566 24567 28
19654 24566 24568 28
19655 24566 24569 28
19656 24566 24570 28
19657 24571 24572 28
19658 24571 24573 28
19659 24571 24574 28
19660 24571 24575 28
19661 24576 24577 28
19662 24576 24578 28
19663 24576 24579 28
19664 24576 24580 28
19665 24581 24582 28
19666 24581 24583 28
19667 24581 24584 28
19668 24581 24585 28
19669 24586 24587 28
19670 24586 24588 28
19671 24586 24589 28
19672 24586 24590 28
19673 24591 24592 28
19674 24591 24593 28
19675 24591 24594 28
19676 24591 24595 28
19677 24596 24597 28
19678 24596 24598 28
19679 24596 24599 28
19680 24596 24600 28
19681 24601 24602 28
19682 24601 24603 28
19683 24601 24604 28
19684 24601 24605 28
19685 24606 24607 28
19686 24606 24608 28
19687 24606 24609 28
19688 24606 24610 28
19689 24611 24612 28
19690 24611 24613 28
19691 24611 24614 28
19692 24611 24615 28
19693 24616 24617 28
19694 24616 24618 28
19695 24616 24619 28
19696 24616 24620 28
19697 24621 24622 28
19698 24621 24623 28
19699 24621 24624 28
19700 24621 24625 28
19701 24626 24627 28
19702 24626 24628 28
19703 24626 24629 28
19704 24626 24630 28
19705 24631 24632 28
19706 24631 24633 28
19707 24631 24634 28
19708 24631 24635 28
19709 24636 24637 28
19710 24636 24638 28
19711 24636 24639 28
19712 24636 24640 28
19713 24641 24642 28
19714 24641 24643 28
19715 24641 24644 28
19716 24641 24645 28
19717 24646 24647 28
19718 24646 24648 28
19719 24646 24649 28
19720 24646 24650 28
19721 24651 24652 28
19722 24651 24653 28
19723 24651 24654 28
19724 24651 24655 28
19725 24656 24657 28
19726 24656 24658 28
19727 24656 24659 28
19728 24656 24660 28
19729 24661 24662 28
19730 24661 24663 28
19731 24661 24664 28
19732 24661 24665 28
19733 24666 24667 28
19734 24666 24668 28
19735 24666 24669 28
19736 24666 24670 28
19737 24671 24672 28
19738 24671 24673 28
19739 24671 24674 28
19740 24671 24675 28
19741 24676 24677 28
19742 24676 24678 28
19743 24676 24679 28
19744 24676 24680 28
19745 24681 24682 28
19746 24681 24683 28
19747 24681 24684 28
19748 24681 24685 28
19749 24686 24687 28
19750 24686 24688 28
19751 24686 24689 28
19752 24686 24690 28
19753 24691 24692 28
19754 24691 24693 28
19755 24691 24694 28
19756 24691 24695 28
19757 24696 24697 28
19758 24696 24698 28
19759 24696 24699 28
19760 24696 24700 28
19761 24701 24702 28
19762 24701 24703 28
19763 24701 24704 28
19764 24701 24705 28
19765 24706 24707 28
19766 24706 24708 28
19767 24706 24709 28
19768 24706 24710 28
19769 24711 24712 28
19770 24711 24713 28
19771 24711 24714 28
19772 24711 24715 28
19773 24716 24717 28
19774 24716 24718 28
19775 24716 24719 28
19776 24716 24720 28
19777 24721 24722 28
19778 24721 24723 28
19779 24721 24724 28
19780 24721 24725 28
19781 24726 24727 28
19782 24726 24728 28
19783 24726 24729 28
19784 24726 24730 28
19785 24731 24732 28
19786 24731 24733 28
19787 24731 24734 28
19788 24731 24735 28
19789 24736 24737 28
19790 24736 24738 28
19791 24736 24739 28
19792 24736 24740 28
19793 24741 24742 28
19794 24741 24743 28
19795 24741 24744 28
19796 24741 24745 28
19797 24746 24747 28
19798 24746 24748 28
19799 24746 24749 28
19800 24746 24750 28
19801 24751 24752 28
19802 24751 24753 28
19803 24751 24754 28
19804 24751 24755 28
19805 24756 24757 28
19806 24756 24758 28
19807 24756 24759 28
19808 24756 24760 28
19809 24761 24762 28
19810 24761 24763 28
19811 24761 24764 28
19812 24761 24765 28
19813 24766 24767 28
19814 24766 24768 28
19815 24766 24769 28
19816 24766 24770 28
19817 24771 24772 28
19818 24771 24773 28
19819 24771 24774 28
19820 24771 24775 28
19821 24776 24777 28
19822 24776 24778 28
19823 24776 24779 28
19824 24776 24780 28
19825 24781 24782 28
19826 24781 24783 28
19827 24781 24784 28
19828 24781 24785 28
19829 24786 24787 28
19830 24786 24788 28
19831 24786 24789 28
19832 24786 24790 28
19833 24791 24792 28
19834 24791 24793 28
19835 24791 24794 28
19836 24791 24795 28
19837 24796 24797 28
19838 24796 24798 28
19839 24796 24799 28
19840 24796 24800 28
19841 24801 24802 28
19842 24801 24803 28
19843 24801 24804 28
19844 24801 24805 28
19845 24806 24807 28
19846 24806 24808 28
19847 24806 24809 28
19848 24806 24810 28
19849 24811 24812 28
19850 24811 24813 28
19851 24811 24814 28
19852 24811 24815 28
19853 24816 24817 28
19854 24816 24818 28
19855 24816 24819 28
19856 24816 24820 28
19857 24821 24822 28
19858 24821 24823 28
19859 24821 24824 28
19860 24821 24825 28
19861 24826 24827 28
19862 24826 24828 28
19863 24826 24829 28
19864 24826 24830 28
19865 24831 24832 28
19866 24831 24833 28
19867 24831 24834 28
19868 24831 24835 28
19869 24836 24837 28
19870 24836 24838 28
19871 24836 24839 28
19872 24836 24840 28
19873 24841 24842 28
19874 24841 24843 28
19875 24841 24844 28
19876 24841 24845 28
19877 24846 24847 28
19878 24846 24848 28
19879 24846 24849 28
19880 24846 24850 28
19881 24851 24852 28
19882 24851 24853 28
19883 24851 24854 28
19884 24851 24855 28
19885 24856 24857 28
19886 24856 24858 28
19887 24856 24859 28
19888 24856 24860 28
19889 24861 24862 28
19890 24861 24863 28
19891 24861 24864 28
19892 24861 24865 28
19893 24866 24867 28
19894 24866 24868 28
19895 24866 24869 28
19896 24866 24870 28
19897 24871 24872 28
19898 24871 24873 28
19899 24871 24874 28
19900 24871 24875 28
19901 24876 24877 28
19902 24876 24878 28
19903 24876 24879 28
19904 24876 24880 28
19905 24881 24882 28
19906 24881 24883 28
19907 24881 24884 28
19908 24881 24885 28
19909 24886 24887 28
19910 24886 24888 28
19911 24886 24889 28
19912 24886 24890 28
19913 24891 24892 28
19914 24891 24893 28
19915 24891 24894 28
19916 24891 24895 28
19917 24896 24897 28
19918 24896 24898 28
19919 24896 24899 28
19920 24896 24900 28
19921 24901 24902 28
19922 24901 24903 28
19923 24901 24904 28
19924 24901 24905 28
19925 24906 24907 28
19926 24906 24908 28
19927 24906 24909 28
19928 24906 24910 28
19929 24911 24912 28
19930 24911 24913 28
19931 24911 24914 28
19932 24911 24915 28
19933 24916 24917 28
19934 24916 24918 28
19935 24916 24919 28
19936 24916 24920 28
19937 24921 24922 28
19938 24921 24923 28
19939 24921 24924 28
19940 24921 24925 28
19941 24926 24927 28
19942 24926 24928 28
19943 24926 24929 28
19944 24926 24930 28
19945 24931 24932 28
19946 24931 24933 28
19947 24931 24934 28
19948 24931 24935 28
19949 24936 24937 28
19950 24936 24938 28
19951 24936 24939 28
19952 24936 24940 28
19953 24941 24942 28
19954 24941 24943 28
19955 24941 24944 28
19956 24941 24945 28
19957 24946 24947 28
19958 24946 24948 28
19959 24946 24949 28
19960 24946 24950 28
19961 24951 24952 28
19962 24951 24953 28
19963 24951 24954 28
19964 24951 24955 28
19965 24956 24957 28
19966 24956 24958 28
19967 24956 24959 28
19968 24956 24960 28
19969 24961 24962 28
19970 24961 24963 28
19971 24961 24964 28
19972 24961 24965 28
19973 24966 24967 28
19974 24966 24968 28
19975 24966 24969 28
19976 24966 24970 28
19977 24971 24972 28
19978 24971 24973 28
19979 24971 24974 28
19980 24971 24975 28
19981 24976 24977 28
19982 24976 24978 28
19983 24976 24979 28
19984 24976 24980 28
19985 24981 24982 28
19986 24981 24983 28
19987 24981 24984 28
19988 24981 24985 28
19989 24986 24987 28
19990 24986 24988 28
19991 24986 24989 28
19992 24986 24990 28
19993 24991 24992 28
19994 24991 24993 28
19995 24991 24994 28
19996 24991 24995 28
19997 24996 24997 28
19998 24996 24998 28
19999 24996 24999 28
20000 24996 25000 28
20001 25001 25002 28
20002 25001 25003 28
20003 25001 25004 28
20004 25001 25005 28
20005 25006 25007 28
20006 25006 25008 28
20007 25006 25009 28
20008 25006 25010 28
20009 25011 25012 28
20010 25011 25013 28
20011 25011 25014 28
20012 25011 25015 28
20013 25016 25017 28
20014 25016 25018 28
20015 25016 25019 28
20016 25016 25020 28
20017 25021 25022 28
20018 25021 25023 28
20019 25021 25024 28
20020 25021 25025 28
20021 25026 25027 28
20022 25026 25028 28
20023 25026 25029 28
20024 25026 25030 28
20025 25031 25032 28
20026 25031 25033 28
20027 25031 25034 28
20028 25031 25035 28
20029 25036 25037 28
20030 25036 25038 28
20031 25036 25039 28
20032 25036 25040 28
20033 25041 25042 28
20034 25041 25043 28
20035 25041 25044 28
20036 25041 25045 28
20037 25046 25047 28
20038 25046 25048 28
20039 25046 25049 28
20040 25046 25050 28
20041 25051 25052 28
20042 25051 25053 28
20043 25051 25054 28
20044 25051 25055 28
20045 25056 25057 28
20046 25056 25058 28
20047 25056 25059 28
20048 25056 25060 28
20049 25061 25062 28
20050 25061 25063 28
20051 25061 25064 28
20052 25061 25065 28
20053 25066 25067 28
20054 25066 25068 28
20055 25066 25069 28
20056 25066 25070 28
20057 25071 25072 28
20058 25071 25073 28
20059 25071 25074 28
20060 25071 25075 28
20061 25076 25077 28
20062 25076 25078 28
20063 25076 25079 28
20064 25076 25080 28
20065 25081 25082 28
20066 25081 25083 28
20067 25081 25084 28
20068 25081 25085 28
20069 25086 25087 28
20070 25086 25088 28
20071 25086 25089 28
20072 25086 25090 28
20073 25091 25092 28
20074 25091 25093 28
20075 25091 25094 28
20076 25091 25095 28
20077 25096 25097 28
20078 25096 25098 28
20079 25096 25099 28
20080 25096 25100 28
20081 25101 25102 28
20082 25101 25103 28
20083 25101 25104 28
20084 25101 25105 28
20085 25106 25107 28
20086 25106 25108 28
20087 25106 25109 28
20088 25106 25110 28
20089 25111 25112 28
20090 25111 25113 28
20091 25111 25114 28
20092 25111 25115 28
20093 25116 25117 28
20094 25116 25118 28
20095 25116 25119 28
20096 25116 25120 28
20097 25121 25122 28
20098 25121 25123 28
20099 25121 25124 28
20100 25121 25125 28
20101 25126 25127 28
20102 25126 25128 28
20103 25126 25129 28
20104 25126 25130 28
20105 25131 25132 28
20106 25131 25133 28
20107 25131 25134 28
20108 25131 25135 28
20109 25136 25137 28
20110 25136 25138 28
20111 25136 25139 28
20112 25136 25140 28
20113 25141 25142 28
20114 25141 25143 28
20115 25141 25144 28
20116 25141 25145 28
20117 25146 25147 28
20118 25146 25148 28
20119 25146 25149 28
20120 25146 25150 28
20121 25151 25152 28
20122 25151 25153 28
20123 25151 25154 28
20124 25151 25155 28
20125 25156 25157 28
20126 25156 25158 28
20127 25156 25159 28
20128 25156 25160 28
20129 25161 25162 28
20130 25161 25163 28
20131 25161 25164 28
20132 25161 25165 28
20133 25166 25167 28
20134 25166 25168 28
20135 25166 25169 28
20136 25166 25170 28
20137 25171 25172 28
20138 25171 25173 28
20139 25171 25174 28
20140 25171 25175 28
20141 25176 25177 28
20142 25176 25178 28
20143 25176 25179 28
20144 25176 25180 28
20145 25181 25182 28
20146 25181 25183 28
20147 25181 25184 28
20148 25181 25185 28
20149 25186 25187 28
20150 25186 25188 28
20151 25186 25189 28
20152 25186 25190 28
20153 25191 25192 28
20154 25191 25193 28
20155 25191 25194 28
20156 25191 25195 28
20157 25196 25197 28
20158 25196 25198 28
20159 25196 25199 28
20160 25196 25200 28
20161 25201 25202 28
20162 25201 25203 28
20163 25201 25204 28
20164 25201 25205 28
20165 25206 25207 28
20166 25206 25208 28
20167 25206 25209 28
20168 25206 25210 28
20169 25211 25212 28
20170 25211 25213 28
20171 25211 25214 28
20172 25211 25215 28
20173 25216 25217 28
20174 25216 25218 28
20175 25216 25219 28
20176 25216 25220 28
20177 25221 25222 28
20178 25221 25223 28
20179 25221 25224 28
20180 25221 25225 28
20181 25226 25227 28
20182 25226 25228 28
20183 25226 25229 28
20184 25226 25230 28
20185 25231 25232 28
20186 25231 25233 28
20187 25231 25234 28
20188 25231 25235 28
20189 25236 25237 28
20190 25236 25238 28
20191 25236 25239 28
20192 25236 25240 28
20193 25241 25242 28
20194 25241 25243 28
20195 25241 25244 28
20196 25241 25245 28
20197 25246 25247 28
20198 25246 25248 28
20199 25246 25249 28
20200 25246 25250 28
20201 25251 25252 28
20202 25251 25253 28
20203 25251 25254 28
20204 25251 25255 28
20205 25256 25257 28
20206 25256 25258 28
20207 25256 25259 28
20208 25256 25260 28
20209 25261 25262 28
20210 25261 25263 28
20211 25261 25264 28
20212 25261 25265 28
20213 25266 25267 28
20214 25266 25268 28
20215 25266 25269 28
20216 25266 25270 28
20217 25271 25272 28
20218 25271 25273 28
20219 25271 25274 28
20220 25271 25275 28
20221 25276 25277 28
20222 25276 25278 28
20223 25276 25279 28
20224 25276 25280 28
20225 25281 25282 28
20226 25281 25283 28
20227 25281 25284 28
20228 25281 25285 28
20229 25286 25287 28
20230 25286 25288 28
20231 25286 25289 28
20232 25286 25290 28
20233 25291 25292 28
20234 25291 25293 28
20235 25291 25294 28
20236 25291 25295 28
20237 25296 25297 28
20238 25296 25298 28
20239 25296 25299 28
20240 25296 25300 28
20241 25301 25302 28
20242 25301 25303 28
20243 25301 25304 28
20244 25301 25305 28
20245 25306 25307 28
20246 25306 25308 28
20247 25306 25309 28
20248 25306 25310 28
20249 25311 25312 28
20250 25311 25313 28
20251 25311 25314 28
20252 25311 25315 28
20253 25316 25317 28
20254 25316 25318 28
20255 25316 25319 28
20256 25316 25320 28
20257 25321 25322 28
20258 25321 25323 28
20259 25321 25324 28
20260 25321 25325 28
20261 25326 25327 28
20262 25326 25328 28
20263 25326 25329 28
20264 25326 25330 28
20265 25331 25332 28
20266 25331 25333 28
20267 25331 25334 28
20268 25331 25335 28
20269 25336 25337 28
20270 25336 25338 28
20271 25336 25339 28
20272 25336 25340 28
20273 25341 25342 28
20274 25341 25343 28
20275 25341 25344 28
20276 25341 25345 28
20277 25346 25347 28
20278 25346 25348 28
20279 25346 25349 28
20280 25346 25350 28
20281 25351 25352 28
20282 25351 25353 28
20283 25351 25354 28
20284 25351 25355 28
20285 25356 25357 28
20286 25356 25358 28
20287 25356 25359 28
20288 25356 25360 28
20289 25361 25362 28
20290 25361 25363 28
20291 25361 25364 28
20292 25361 25365 28
20293 25366 25367 28
20294 25366 25368 28
20295 25366 25369 28
20296 25366 25370 28
20297 25371 25372 28
20298 25371 25373 28
20299 25371 25374 28
20300 25371 25375 28
20301 25376 25377 28
20302 25376 25378 28
20303 25376 25379 28
20304 25376 25380 28
20305 25381 25382 28
20306 25381 25383 28
20307 25381 25384 28
20308 25381 25385 28
20309 25386 25387 28
20310 25386 25388 28
20311 25386 25389 28
20312 25386 25390 28
20313 25391 25392 28
20314 25391 25393 28
20315 25391 25394 28
20316 25391 25395 28
20317 25396 25397 28
20318 25396 25398 28
20319 25396 25399 28
20320 25396 25400 28
20321 25401 25402 28
20322 25401 25403 28
20323 25401 25404 28
20324 25401 25405 28
20325 25406 25407 28
20326 25406 25408 28
20327 25406 25409 28
20328 25406 25410 28
20329 25411 25412 28
20330 25411 25413 28
20331 25411 25414 28
20332 25411 25415 28
20333 25416 25417 28
20334 25416 25418 28
20335 25416 25419 28
20336 25416 25420 28
20337 25421 25422 28
20338 25421 25423 28
20339 25421 25424 28
20340 25421 25425 28
20341 25426 25427 28
20342 25426 25428 28
20343 25426 25429 28
20344 25426 25430 28
20345 25431 25432 28
20346 25431 25433 28
20347 25431 25434 28
20348 25431 25435 28
20349 25436 25437 28
20350 25436 25438 28
20351 25436 25439 28
20352 25436 25440 28
20353 25441 25442 28
20354 25441 25443 28
20355 25441 25444 28
20356 25441 25445 28
20357 25446 25447 28
20358 25446 25448 28
20359 25446 25449 28
20360 25446 25450 28
20361 25451 25452 28
20362 25451 25453 28
20363 25451 25454 28
20364 25451 25455 28
20365 25456 25457 28
20366 25456 25458 28
20367 25456 25459 28
20368 25456 25460 28
20369 25461 25462 28
20370 25461 25463 28
20371 25461 25464 28
20372 25461 25465 28
20373 25466 25467 28
20374 25466 25468 28
20375 25466 25469 28
20376 25466 25470 28
20377 25471 25472 28
20378 25471 25473 28
20379 25471 25474 28
20380 25471 25475 28
20381 25476 25477 28
20382 25476 25478 28
20383 25476 25479 28
20384 25476 25480 28
20385 25481 25482 28
20386 25481 25483 28
20387 25481 25484 28
20388 25481 25485 28
20389 25486 25487 28
20390 25486 25488 28
20391 25486 25489 28
20392 25486 25490 28
20393 25491 25492 28
20394 25491 25493 28
20395 25491 25494 28
20396 25491 25495 28
20397 25496 25497 28
20398 25496 25498 28
20399 25496 25499 28
20400 25496 25500 28
20401 25501 25502 28
20402 25501 25503 28
20403 25501 25504 28
20404 25501 25505 28
20405 25506 25507 28
20406 25506 25508 28
20407 25506 25509 28
20408 25506 25510 28
20409 25511 25512 28
20410 25511 25513 28
20411 25511 25514 28
20412 25511 25515 28
20413 25516 25517 28
20414 25516 25518 28
20415 25516 25519 28
20416 25516 25520 28
20417 25521 25522 28
20418 25521 25523 28
20419 25521 25524 28
20420 25521 25525 28
20421 25526 25527 28
20422 25526 25528 28
20423 25526 25529 28
20424 25526 25530 28
20425 25531 25532 28
20426 25531 25533 28
20427 25531 25534 28
20428 25531 25535 28
20429 25536 25537 28
20430 25536 25538 28
20431 25536 25539 28
20432 25536 25540 28
20433 25541 25542 28
20434 25541 25543 28
20435 25541 25544 28
20436 25541 25545 28
20437 25546 25547 28
20438 25546 25548 28
20439 25546 25549 28
20440 25546 25550 28
20441 25551 25552 28
20442 25551 25553 28
20443 25551 25554 28
20444 25551 25555 28
20445 25556 25557 28
20446 25556 25558 28
20447 25556 25559 28
20448 25556 25560 28
20449 25561 25562 28
20450 25561 25563 28
20451 25561 25564 28
20452 25561 25565 28
20453 25566 25567 28
20454 25566 25568 28
20455 25566 25569 28
20456 25566 25570 28
20457 25571 25572 28
20458 25571 25573 28
20459 25571 25574 28
20460 25571 25575 28
20461 25576 25577 28
20462 25576 25578 28
20463 25576 25579 28
20464 25576 25580 28
20465 25581 25582 28
20466 25581 25583 28
20467 25581 25584 28
20468 25581 25585 28
20469 25586 25587 28
20470 25586 25588 28
20471 25586 25589 28
20472 25586 25590 28
20473 25591 25592 28
20474 25591 25593 28
20475 25591 25594 28
20476 25591 25595 28
20477 25596 25597 28
20478 25596 25598 28
20479 25596 25599 28
20480 25596 25600 28
20481 25601 25602 28
20482 25601 25603 28
20483 25601 25604 28
20484 25601 25605 28
20485 25606 25607 28
20486 25606 25608 28
20487 25606 25609 28
20488 25606 25610 28
20489 25611 25612 28
20490 25611 25613 28
20491 25611 25614 28
20492 25611 25615 28
20493 25616 25617 28
20494 25616 25618 28
20495 25616 25619 28
20496 25616 25620 28
20497 25621 25622 28
20498 25621 25623 28
20499 25621 25624 28
20500 25621 25625 28
20501 25626 25627 28
20502 25626 25628 28
20503 25626 25629 28
20504 25626 25630 28
20505 25631 25632 28
20506 25631 25633 28
20507 25631 25634 28
20508 25631 25635 28
20509 25636 25637 28
20510 25636 25638 28
20511 25636 25639 28
20512 25636 25640 28
20513 25641 25642 28
20514 25641 25643 28
20515 25641 25644 28
20516 25641 25645 28
20517 25646 25647 28
20518 25646 25648 28
20519 25646 25649 28
20520 25646 25650 28
20521 25651 25652 28
20522 25651 25653 28
20523 25651 25654 28
20524 25651 25655 28
20525 25656 25657 28
20526 25656 25658 28
20527 25656 25659 28
20528 25656 25660 28
20529 25661 25662 28
20530 25661 25663 28
20531 25661 25664 28
20532 25661 25665 28
20533 25666 25667 28
20534 25666 25668 28
20535 25666 25669 28
20536 25666 25670 28
20537 25671 25672 28
20538 25671 25673 28
20539 25671 25674 28
20540 25671 25675 28
20541 25676 25677 28
20542 25676 25678 28
20543 25676 25679 28
20544 25676 25680 28
20545 25681 25682 28
20546 25681 25683 28
20547 25681 25684 28
20548 25681 25685 28
20549 25686 25687 28
20550 25686 25688 28
20551 25686 25689 28
20552 25686 25690 28
20553 25691 25692 28
20554 25691 25693 28
20555 25691 25694 28
20556 25691 25695 28
20557 25696 25697 28
20558 25696 25698 28
20559 25696 25699 28
20560 25696 25700 28
20561 25701 25702 28
20562 25701 25703 28
20563 25701 25704 28
20564 25701 25705 28
20565 25706 25707 28
20566 25706 25708 28
20567 25706 25709 28
20568 25706 25710 28
20569 25711 25712 28
20570 25711 25713 28
20571 25711 25714 28
20572 25711 25715 28
20573 25716 25717 28
20574 25716 25718 28
20575 25716 25719 28
20576 25716 25720 28
20577 25721 25722 28
20578 25721 25723 28
20579 25721 25724 28
20580 25721 25725 28
20581 25726 25727 28
20582 25726 25728 28
20583 25726 25729 28
20584 25726 25730 28
20585 25731 25732 28
20586 25731 25733 28
20587 25731 25734 28
20588 25731 25735 28
20589 25736 25737 28
20590 25736 25738 28
20591 25736 25739 28
20592 25736 25740 28
20593 25741 25742 28
20594 25741 25743 28
20595 25741 25744 28
20596 25741 25745 28
20597 25746 25747 28
20598 25746 25748 28
20599 25746 25749 28
20600 25746 25750 28
20601 25751 25752 28
20602 25751 25753 28
20603 25751 25754 28
20604 25751 25755 28
20605 25756 25757 28
20606 25756 25758 28
20607 25756 25759 28
20608 25756 25760 28
20609 25761 25762 28
20610 25761 25763 28
20611 25761 25764 28
20612 25761 25765 28
20613 25766 25767 28
20614 25766 25768 28
20615 25766 25769 28
20616 25766 25770 28
20617 25771 25772 28
20618 25771 25773 28
20619 25771 25774 28
20620 25771 25775 28
20621 25776 25777 28
20622 25776 25778 28
20623 25776 25779 28
20624 25776 25780 28
20625 25781 25782 28
20626 25781 25783 28
20627 25781 25784 28
20628 25781 25785 28
20629 25786 25787 28
20630 25786 25788 28
20631 25786 25789 28
20632 25786 25790 28
20633 25791 25792 28
20634 25791 25793 28
20635 25791 25794 28
20636 25791 25795 28
20637 25796 25797 28
20638 25796 25798 28
20639 25796 25799 28
20640 25796 25800 28
20641 25801 25802 28
20642 25801 25803 28
20643 25801 25804 28
20644 25801 25805 28
20645 25806 25807 28
20646 25806 25808 28
20647 25806 25809 28
20648 25806 25810 28
20649 25811 25812 28
20650 25811 25813 28
20651 25811 25814 28
20652 25811 25815 28
20653 25816 25817 28
20654 25816 25818 28
20655 25816 25819 28
20656 25816 25820 28
20657 25821 25822 28
20658 25821 25823 28
20659 25821 25824 28
20660 25821 25825 28
20661 25826 25827 28
20662 25826 25828 28
20663 25826 25829 28
20664 25826 25830 28
20665 25831 25832 28
20666 25831 25833 28
20667 25831 25834 28
20668 25831 25835 28
20669 25836 25837 28
20670 25836 25838 28
20671 25836 25839 28
20672 25836 25840 28
20673 25841 25842 28
20674 25841 25843 28
20675 25841 25844 28
20676 25841 25845 28
20677 25846 25847 28
20678 25846 25848 28
20679 25846 25849 28
20680 25846 25850 28
20681 25851 25852 28
20682 25851 25853 28
20683 25851 25854 28
20684 25851 25855 28
20685 25856 25857 28
20686 25856 25858 28
20687 25856 25859 28
20688 25856 25860 28
20689 25861 25862 28
20690 25861 25863 28
20691 25861 25864 28
20692 25861 25865 28
20693 25866 25867 28
20694 25866 25868 28
20695 25866 25869 28
20696 25866 25870 28
20697 25871 25872 28
20698 25871 25873 28
20699 25871 25874 28
20700 25871 25875 28
20701 25876 25877 28
20702 25876 25878 28
20703 25876 25879 28
20704 25876 25880 28
20705 25881 25882 28
20706 25881 25883 28
20707 25881 25884 28
20708 25881 25885 28
20709 25886 25887 28
20710 25886 25888 28
20711 25886 25889 28
20712 25886 25890 28
20713 25891 25892 28
20714 25891 25893 28
20715 25891 25894 28
20716 25891 25895 28
20717 25896 25897 28
20718 25896 25898 28
20719 25896 25899 28
20720 25896 25900 28
20721 25901 25902 28
20722 25901 25903 28
20723 25901 25904 28
20724 25901 25905 28
20725 25906 25907 28
20726 25906 25908 28
20727 25906 25909 28
20728 25906 25910 28
20729 25911 25912 28
20730 25911 25913 28
20731 25911 25914 28
20732 25911 25915 28
20733 25916 25917 28
20734 25916 25918 28
20735 25916 25919 28
20736 25916 25920 28
20737 25921 25922 28
20738 25921 25923 28
20739 25921 25924 28
20740 25921 25925 28
20741 25926 25927 28
20742 25926 25928 28
20743 25926 25929 28
20744 25926 25930 28
20745 25931 25932 28
20746 25931 25933 28
20747 25931 25934 28
20748 25931 25935 28
20749 25936 25937 28
20750 25936 25938 28
20751 25936 25939 28
20752 25936 25940 28
20753 25941 25942 28
20754 25941 25943 28
20755 25941 25944 28
20756 25941 25945 28
20757 25946 25947 28
20758 25946 25948 28
20759 25946 25949 28
20760 25946 25950 28
20761 25951 25952 28
20762 25951 25953 28
20763 25951 25954 28
20764 25951 25955 28
20765 25956 25957 28
20766 25956 25958 28
20767 25956 25959 28
20768 25956 25960 28
20769 25961 25962 28
20770 25961 25963 28
20771 25961 25964 28
20772 25961 25965 28
20773 25966 25967 28
20774 25966 25968 28
20775 25966 25969 28
20776 25966 25970 28
20777 25971 25972 28
20778 25971 25973 28
20779 25971 25974 28
20780 25971 25975 28
20781 25976 25977 28
20782 25976 25978 28
20783 25976 25979 28
20784 25976 25980 28
20785 25981 25982 28
20786 25981 25983 28
20787 25981 25984 28
20788 25981 25985 28
20789 25986 25987 28
20790 25986 25988 28
20791 25986 25989 28
20792 25986 25990 28
20793 25991 25992 28
20794 25991 25993 28
20795 25991 25994 28
20796 25991 25995 28
20797 25996 25997 28
20798 25996 25998 28
20799 25996 25999 28
20800 25996 26000 28
20801 26001 26002 28
20802 26001 26003 28
20803 26001 26004 28
20804 26001 26005 28
20805 26006 26007 28
20806 26006 26008 28
20807 26006 26009 28
20808 26006 26010 28
20809 26011 26012 28
20810 26011 26013 28
20811 26011 26014 28
20812 26011 26015 28
20813 26016 26017 28
20814 26016 26018 28
20815 26016 26019 28
20816 26016 26020 28
20817 26021 26022 28
20818 26021 26023 28
20819 26021 26024 28
20820 26021 26025 28
20821 26026 26027 28
20822 26026 26028 28
20823 26026 26029 28
20824 26026 26030 28
20825 26031 26032 28
20826 26031 26033 28
20827 26031 26034 28
20828 26031 26035 28
20829 26036 26037 28
20830 26036 26038 28
20831 26036 26039 28
20832 26036 26040 28
20833 26041 26042 28
20834 26041 26043 28
20835 26041 26044 28
20836 26041 26045 28
20837 26046 26047 28
20838 26046 26048 28
20839 26046 26049 28
20840 26046 26050 28
20841 26051 26052 28
20842 26051 26053 28
20843 26051 26054 28
20844 26051 26055 28
20845 26056 26057 28
20846 26056 26058 28
20847 26056 26059 28
20848 26056 26060 28
20849 26061 26062 28
20850 26061 26063 28
20851 26061 26064 28
20852 26061 26065 28
20853 26066 26067 28
20854 26066 26068 28
20855 26066 26069 28
20856 26066 26070 28
20857 26071 26072 28
20858 26071 26073 28
20859 26071 26074 28
20860 26071 26075 28
20861 26076 26077 28
20862 26076 26078 28
20863 26076 26079 28
20864 26076 26080 28
20865 26081 26082 28
20866 26081 26083 28
20867 26081 26084 28
20868 26081 26085 28
20869 26086 26087 28
20870 26086 26088 28
20871 26086 26089 28
20872 26086 26090 28
20873 26091 26092 28
20874 26091 26093 28
20875 26091 26094 28
20876 26091 26095 28
20877 26096 26097 28
20878 26096 26098 28
20879 26096 26099 28
20880 26096 26100 28
20881 26101 26102 28
20882 26101 26103 28
20883 26101 26104 28
20884 26101 26105 28
20885 26106 26107 28
20886 26106 26108 28
20887 26106 26109 28
20888 26106 26110 28
20889 26111 26112 28
20890 26111 26113 28
20891 26111 26114 28
20892 26111 26115 28
20893 26116 26117 28
20894 26116 26118 28
20895 26116 26119 28
20896 26116 26120 28
20897 26121 26122 28
20898 26121 26123 28
20899 26121 26124 28
20900 26121 26125 28
20901 26126 26127 28
20902 26126 26128 28
20903 26126 26129 28
20904 26126 26130 28
20905 26131 26132 28
20906 26131 26133 28
20907 26131 26134 28
20908 26131 26135 28
20909 26136 26137 28
20910 26136 26138 28
20911 26136 26139 28
20912 26136 26140 28
20913 26141 26142 28
20914 26141 26143 28
20915 26141 26144 28
20916 26141 26145 28
20917 26146 26147 28
20918 26146 26148 28
20919 26146 26149 28
20920 26146 26150 28
20921 26151 26152 28
20922 26151 26153 28
20923 26151 26154 28
20924 26151 26155 28
20925 26156 26157 28
20926 26156 26158 28
20927 26156 26159 28
20928 26156 26160 28
20929 26161 26162 28
20930 26161 26163 28
20931 26161 26164 28
20932 26161 26165 28
20933 26166 26167 28
20934 26166 26168 28
20935 26166 26169 28
20936 26166 26170 28
20937 26171 26172 28
20938 26171 26173 28
20939 26171 26174 28
20940 26171 26175 28
20941 26176 26177 28
20942 26176 26178 28
20943 26176 26179 28
20944 26176 26180 28
20945 26181 26182 28
20946 26181 26183 28
20947 26181 26184 28
20948 26181 26185 28
20949 26186 26187 28
20950 26186 26188 28
20951 26186 26189 28
20952 26186 26190 28
20953 26191 26192 28
20954 26191 26193 28
20955 26191 26194 28
20956 26191 26195 28
20957 26196 26197 28
20958 26196 26198 28
20959 26196 26199 28
20960 26196 26200 28
20961 26201 26202 28
20962 26201 26203 28
20963 26201 26204 28
20964 26201 26205 28
20965 26206 26207 28
20966 26206 26208 28
20967 26206 26209 28
20968 26206 26210 28
20969 26211 26212 28
20970 26211 26213 28
20971 26211 26214 28
20972 26211 26215 28
20973 26216 26217 28
20974 26216 26218 28
20975 26216 26219 28
20976 26216 26220 28
20977 26221 26222 28
20978 26221 26223 28
20979 26221 26224 28
20980 26221 26225 28
20981 26226 26227 28
20982 26226 26228 28
20983 26226 26229 28
20984 26226 26230 28
20985 26231 26232 28
20986 26231 26233 28
20987 26231 26234 28
20988 26231 26235 28
20989 26236 26237 28
20990 26236 26238 28
20991 26236 26239 28
20992 26236 26240 28
20993 26241 26242 28
20994 26241 26243 28
20995 26241 26244 28
20996 26241 26245 28
20997 26246 26247 28
20998 26246 26248 28
20999 26246 26249 28
21000 26246 26250 28
21001 26251 26252 28
21002 26251 26253 28
21003 26251 26254 28
21004 26251 26255 28
21005 26256 26257 28
21006 26256 26258 28
21007 26256 26259 28
21008 26256 26260 28
21009 26261 26262 28
21010 26261 26263 28
21011 26261 26264 28
21012 26261 26265 28
21013 26266 26267 28
21014 26266 26268 28
21015 26266 26269 28
21016 26266 26270 28
21017 26271 26272 28
21018 26271 26273 28
21019 26271 26274 28
21020 26271 26275 28
21021 26276 26277 28
21022 26276 26278 28
21023 26276 26279 28
21024 26276 26280 28
21025 26281 26282 28
21026 26281 26283 28
21027 26281 26284 28
21028 26281 26285 28
21029 26286 26287 28
21030 26286 26288 28
21031 26286 26289 28
21032 26286 26290 28
21033 26291 26292 28
21034 26291 26293 28
21035 26291 26294 28
21036 26291 26295 28
21037 26296 26297 28
21038 26296 26298 28
21039 26296 26299 28
21040 26296 26300 28
21041 26301 26302 28
21042 26301 26303 28
21043 26301 26304 28
21044 26301 26305 28
21045 26306 26307 28
21046 26306 26308 28
21047 26306 26309 28
21048 26306 26310 28
21049 26311 26312 28
21050 26311 26313 28
21051 26311 26314 28
21052 26311 26315 28
21053 26316 26317 28
21054 26316 26318 28
21055 26316 26319 28
21056 26316 26320 28
21057 26321 26322 28
21058 26321 26323 28
21059 26321 26324 28
21060 26321 26325 28
21061 26326 26327 28
21062 26326 26328 28
21063 26326 26329 28
21064 26326 26330 28
21065 26331 26332 28
21066 26331 26333 28
21067 26331 26334 28
21068 26331 26335 28
21069 26336 26337 28
21070 26336 26338 28
21071 26336 26339 28
21072 26336 26340 28
21073 26341 26342 28
21074 26341 26343 28
21075 26341 26344 28
21076 26341 26345 28
21077 26346 26347 28
21078 26346 26348 28
21079 26346 26349 28
21080 26346 26350 28
21081 26351 26352 28
21082 26351 26353 28
21083 26351 26354 28
21084 26351 26355 28
21085 26356 26357 28
21086 26356 26358 28
21087 26356 26359 28
21088 26356 26360 28
21089 26361 26362 28
21090 26361 26363 28
21091 26361 26364 28
21092 26361 26365 28
21093 26366 26367 28
21094 26366 26368 28
21095 26366 26369 28
21096 26366 26370 28
21097 26371 26372 28
21098 26371 26373 28
21099 26371 26374 28
21100 26371 26375 28
21101 26376 26377 28
21102 26376 26378 28
21103 26376 26379 28
21104 26376 26380 28
21105 26381 26382 28
21106 26381 26383 28
21107 26381 26384 28
21108 26381 26385 28
21109 26386 26387 28
21110 26386 26388 28
21111 26386 26389 28
21112 26386 26390 28
21113 26391 26392 28
21114 26391 26393 28
21115 26391 26394 28
21116 26391 26395 28
21117 26396 26397 28
21118 26396 26398 28
21119 26396 26399 28
21120 26396 26400 28
21121 26401 26402 28
21122 26401 26403 28
21123 26401 26404 28
21124 26401 26405 28
21125 26406 26407 28
21126 26406 26408 28
21127 26406 26409 28
21128 26406 26410 28
21129 26411 26412 28
21130 26411 26413 28
21131 26411 26414 28
21132 26411 26415 28
21133 26416 26417 28
21134 26416 26418 28
21135 26416 26419 28
21136 26416 26420 28
21137 26421 26422 28
21138 26421 26423 28
21139 26421 26424 28
21140 26421 26425 28
21141 26426 26427 28
21142 26426 26428 28
21143 26426 26429 28
21144 26426 26430 28
21145 26431 26432 28
21146 26431 26433 28
21147 26431 26434 28
21148 26431 26435 28
21149 26436 26437 28
21150 26436 26438 28
21151 26436 26439 28
21152 26436 26440 28
21153 26441 26442 28
21154 26441 26443 28
21155 26441 26444 28
21156 26441 26445 28
21157 26446 26447 28
21158 26446 26448 28
21159 26446 26449 28
21160 26446 26450 28
21161 26451 26452 28
21162 26451 26453 28
21163 26451 26454 28
21164 26451 26455 28
21165 26456 26457 28
21166 26456 26458 28
21167 26456 26459 28
21168 26456 26460 28
21169 26461 26462 28
21170 26461 26463 28
21171 26461 26464 28
21172 26461 26465 28
21173 26466 26467 28
21174 26466 26468 28
21175 26466 26469 28
21176 26466 26470 28
21177 26471 26472 28
21178 26471 26473 28
21179 26471 26474 28
21180 26471 26475 28
21181 26476 26477 28
21182 26476 26478 28
21183 26476 26479 28
21184 26476 26480 28
21185 26481 26482 28
21186 26481 26483 28
21187 26481 26484 28
21188 26481 26485 28
21189 26486 26487 28
21190 26486 26488 28
21191 26486 26489 28
21192 26486 26490 28
21193 26491 26492 28
21194 26491 26493 28
21195 26491 26494 28
21196 26491 26495 28
21197 26496 26497 28
21198 26496 26498 28
21199 26496 26499 28
21200 26496 26500 28
21201 26501 26502 28
21202 26501 26503 28
21203 26501 26504 28
21204 26501 26505 28
21205 26506 26507 28
21206 26506 26508 28
21207 26506 26509 28
21208 26506 26510 28
21209 26511 26512 28
21210 26511 26513 28
21211 26511 26514 28
21212 26511 26515 28
21213 26516 26517 28
21214 26516 26518 28
21215 26516 26519 28
21216 26516 26520 28
21217 26521 26522 28
21218 26521 26523 28
21219 26521 26524 28
21220 26521 26525 28
21221 26526 26527 28
21222 26526 26528 28
21223 26526 26529 28
21224 26526 26530 28
21225 26531 26532 28
21226 26531 26533 28
21227 26531 26534 28
21228 26531 26535 28
21229 26536 26537 28
21230 26536 26538 28
21231 26536 26539 28
21232 26536 26540 28
21233 26541 26542 28
21234 26541 26543 28
21235 26541 26544 28
21236 26541 26545 28
21237 26546 26547 28
21238 26546 26548 28
21239 26546 26549 28
21240 26546 26550 28
21241 26551 26552 28
21242 26551 26553 28
21243 26551 26554 28
21244 26551 26555 28
21245 26556 26557 28
21246 26556 26558 28
21247 26556 26559 28
21248 26556 26560 28
21249 26561 26562 28
21250 26561 26563 28
21251 26561 26564 28
21252 26561 26565 28
21253 26566 26567 28
21254 26566 26568 28
21255 26566 26569 28
21256 26566 26570 28
21257 26571 26572 28
21258 26571 26573 28
21259 26571 26574 28
21260 26571 26575 28
21261 26576 26577 28
21262 26576 26578 28
21263 26576 26579 28
21264 26576 26580 28
21265 26581 26582 28
21266 26581 26583 28
21267 26581 26584 28
21268 26581 26585 28
21269 26586 26587 28
21270 26586 26588 28
21271 26586 26589 28
21272 26586 26590 28
21273 26591 26592 28
21274 26591 26593 28
21275 26591 26594 28
21276 26591 26595 28
21277 26596 26597 28
21278 26596 26598 28
21279 26596 26599 28
21280 26596 26600 28
21281 26601 26602 28
21282 26601 26603 28
21283 26601 26604 28
21284 26601 26605 28
21285 26606 26607 28
21286 26606 26608 28
21287 26606 26609 28
21288 26606 26610 28
21289 26611 26612 28
21290 26611 26613 28
21291 26611 26614 28
21292 26611 26615 28
21293 26616 26617 28
21294 26616 26618 28
21295 26616 26619 28
21296 26616 26620 28
21297 26621 26622 28
21298 26621 26623 28
21299 26621 26624 28
21300 26621 26625 28
21301 26626 26627 28
21302 26626 26628 28
21303 26626 26629 28
21304 26626 26630 28
21305 26631 26632 28
21306 26631 26633 28
21307 26631 26634 28
21308 26631 26635 28
21309 26636 26637 28
21310 26636 26638 28
21311 26636 26639 28
21312 26636 26640 28
21313 26641 26642 28
21314 26641 26643 28
21315 26641 26644 28
21316 26641 26645 28
21317 26646 26647 28
21318 26646 26648 28
21319 26646 26649 28
21320 26646 26650 28
21321 26651 26652 28
21322 26651 26653 28
21323 26651 26654 28
21324 26651 26655 28
21325 26656 26657 28
21326 26656 26658 28
21327 26656 26659 28
21328 26656 26660 28
21329 26661 26662 28
21330 26661 26663 28
21331 26661 26664 28
21332 26661 26665 28
21333 26666 26667 28
21334 26666 26668 28
21335 26666 26669 28
21336 26666 26670 28
21337 26671 26672 28
21338 26671 26673 28
21339 26671 26674 28
21340 26671 26675 28
21341 26676 26677 28
21342 26676 26678 28
21343 26676 26679 28
21344 26676 26680 28
21345 26681 26682 28
21346 26681 26683 28
21347 26681 26684 28
21348 26681 26685 28
21349 26686 26687 28
21350 26686 26688 28
21351 26686 26689 28
21352 26686 26690 28
21353 26691 26692 28
21354 26691 26693 28
21355 26691 26694 28
21356 26691 26695 28
21357 26696 26697 28
21358 26696 26698 28
21359 26696 26699 28
21360 26696 26700 28
21361 26701 26702 28
21362 26701 26703 28
21363 26701 26704 28
21364 26701 26705 28
21365 26706 26707 28
21366 26706 26708 28
21367 26706 26709 28
21368 26706 26710 28
21369 26711 26712 28
21370 26711 26713 28
21371 26711 26714 28
21372 26711 26715 28
21373 26716 26717 28
21374 26716 26718 28
21375 26716 26719 28
21376 26716 26720 28
21377 26721 26722 28
21378 26721 26723 28
21379 26721 26724 28
21380 26721 26725 28
21381 26726 26727 28
21382 26726 26728 28
21383 26726 26729 28
21384 26726 26730 28
21385 26731 26732 28
21386 26731 26733 28
21387 26731 26734 28
21388 26731 26735 28
21389 26736 26737 28
21390 26736 26738 28
21391 26736 26739 28
21392 26736 26740 28
21393 26741 26742 28
21394 26741 26743 28
21395 26741 26744 28
21396 26741 26745 28
21397 26746 26747 28
21398 26746 26748 28
21399 26746 26749 28
21400 26746 26750 28
21401 26751 26752 28
21402 26751 26753 28
21403 26751 26754 28
21404 26751 26755 28
21405 26756 26757 28
21406 26756 26758 28
21407 26756 26759 28
21408 26756 26760 28
21409 26761 26762 28
21410 26761 26763 28
21411 26761 26764 28
21412 26761 26765 28
21413 26766 26767 28
21414 26766 26768 28
21415 26766 26769 28
21416 26766 26770 28
21417 26771 26772 28
21418 26771 26773 28
21419 26771 26774 28
21420 26771 26775 28
21421 26776 26777 28
21422 26776 26778 28
21423 26776 26779 28
21424 26776 26780 28
21425 26781 26782 28
21426 26781 26783 28
21427 26781 26784 28
21428 26781 26785 28
21429 26786 26787 28
21430 26786 26788 28
21431 26786 26789 28
21432 26786 26790 28
21433 26791 26792 28
21434 26791 26793 28
21435 26791 26794 28
21436 26791 26795 28
21437 26796 26797 28
21438 26796 26798 28
21439 26796 26799 28
21440 26796 26800 28
21441 26801 26802 28
21442 26801 26803 28
21443 26801 26804 28
21444 26801 26805 28
21445 26806 26807 28
21446 26806 26808 28
21447 26806 26809 28
21448 26806 26810 28
21449 26811 26812 28
21450 26811 26813 28
21451 26811 26814 28
21452 26811 26815 28
21453 26816 26817 28
21454 26816 26818 28
21455 26816 26819 28
21456 26816 26820 28
21457 26821 26822 28
21458 26821 26823 28
21459 26821 26824 28
21460 26821 26825 28
21461 26826 26827 28
21462 26826 26828 28
21463 26826 26829 28
21464 26826 26830 28
21465 26831 26832 28
21466 26831 26833 28
21467 26831 26834 28
21468 26831 26835 28
21469 26836 26837 28
21470 26836 26838 28
21471 26836 26839 28
21472 26836 26840 28
21473 26841 26842 28
21474 26841 26843 28
21475 26841 26844 28
21476 26841 26845 28
21477 26846 26847 28
21478 26846 26848 28
21479 26846 26849 28
21480 26846 26850 28
21481 26851 26852 28
21482 26851 26853 28
21483 26851 26854 28
21484 26851 26855 28
21485 26856 26857 28
21486 26856 26858 28
21487 26856 26859 28
21488 26856 26860 28
21489 26861 26862 28
21490 26861 26863 28
21491 26861 26864 28
21492 26861 26865 28
21493 26866 26867 28
21494 26866 26868 28
21495 26866 26869 28
21496 26866 26870 28
21497 26871 26872 28
21498 26871 26873 28
21499 26871 26874 28
21500 26871 26875 28
21501 26876 26877 28
21502 26876 26878 28
21503 26876 26879 28
21504 26876 26880 28
21505 26881 26882 28
21506 26881 26883 28
21507 26881 26884 28
21508 26881 26885 28
21509 26886 26887 28
21510 26886 26888 28
21511 26886 26889 28
21512 26886 26890 28
21513 26891 26892 28
21514 26891 26893 28
21515 26891 26894 28
21516 26891 26895 28
21517 26896 26897 28
21518 26896 26898 28
21519 26896 26899 28
21520 26896 26900 28
21521 26901 26902 28
21522 26901 26903 28
21523 26901 26904 28
21524 26901 26905 28
21525 26906 26907 28
21526 26906 26908 28
21527 26906 26909 28
21528 26906 26910 28
21529 26911 26912 28
21530 26911 26913 28
21531 26911 26914 28
21532 26911 26915 28
21533 26916 26917 28
21534 26916 26918 28
21535 26916 26919 28
21536 26916 26920 28
21537 26921 26922 28
21538 26921 26923 28
21539 26921 26924 28
21540 26921 26925 28
21541 26926 26927 28
21542 26926 26928 28
21543 26926 26929 28
21544 26926 26930 28
21545 26931 26932 28
21546 26931 26933 28
21547 26931 26934 28
21548 26931 26935 28
21549 26936 26937 28
21550 26936 26938 28
21551 26936 26939 28
21552 26936 26940 28
21553 26941 26942 28
21554 26941 26943 28
21555 26941 26944 28
21556 26941 26945 28
21557 26946 26947 28
21558 26946 26948 28
21559 26946 26949 28
21560 26946 26950 28
21561 26951 26952 28
21562 26951 26953 28
21563 26951 26954 28
21564 26951 26955 28
21565 26956 26957 28
21566 26956 26958 28
21567 26956 26959 28
21568 26956 26960 28
21569 26961 26962 28
21570 26961 26963 28
21571 26961 26964 28
21572 26961 26965 28
21573 26966 26967 28
21574 26966 26968 28
21575 26966 26969 28
21576 26966 26970 28
21577 26971 26972 28
21578 26971 26973 28
21579 26971 26974 28
21580 26971 26975 28
21581 26976 26977 28
21582 26976 26978 28
21583 26976 26979 28
21584 26976 26980 28
21585 26981 26982 28
21586 26981 26983 28
21587 26981 26984 28
21588 26981 26985 28
21589 26986 26987 28
21590 26986 26988 28
21591 26986 26989 28
21592 26986 26990 28
21593 26991 26992 28
21594 26991 26993 28
21595 26991 26994 28
21596 26991 26995 28
21597 26996 26997 28
21598 26996 26998 28
21599 26996 26999 28
21600 26996 27000 28
21601 27001 27002 28
21602 27001 27003 28
21603 27001 27004 28
21604 27001 27005 28
21605 27006 27007 28
21606 27006 27008 28
21607 27006 27009 28
21608 27006 27010 28
21609 27011 27012 28
21610 27011 27013 28
21611 27011 27014 28
21612 27011 27015 28
21613 27016 27017 28
21614 27016 27018 28
21615 27016 27019 28
21616 27016 27020 28
21617 27021 27022 28
21618 27021 27023 28
21619 27021 27024 28
21620 27021 27025 28
21621 27026 27027 28
21622 27026 27028 28
21623 27026 27029 28
21624 27026 27030 28
21625 27031 27032 28
21626 27031 27033 28
21627 27031 27034 28
21628 27031 27035 28
21629 27036 27037 28
21630 27036 27038 28
21631 27036 27039 28
21632 27036 27040 28
21633 27041 27042 28
21634 27041 27043 28
21635 27041 27044 28
21636 27041 27045 28
21637 27046 27047 28
21638 27046 27048 28
21639 27046 27049 28
21640 27046 27050 28
21641 27051 27052 28
21642 27051 27053 28
21643 27051 27054 28
21644 27051 27055 28
21645 27056 27057 28
21646 27056 27058 28
21647 27056 27059 28
21648 27056 27060 28
21649 27061 27062 28
21650 27061 27063 28
21651 27061 27064 28
21652 27061 27065 28
21653 27066 27067 28
21654 27066 27068 28
21655 27066 27069 28
21656 27066 27070 28
21657 27071 27072 28
21658 27071 27073 28
21659 27071 27074 28
21660 27071 27075 28
21661 27076 27077 28
21662 27076 27078 28
21663 27076 27079 28
21664 27076 27080 28
21665 27081 27082 28
21666 27081 27083 28
21667 27081 27084 28
21668 27081 27085 28
21669 27086 27087 28
21670 27086 27088 28
21671 27086 27089 28
21672 27086 27090 28
21673 27091 27092 28
21674 27091 27093 28
21675 27091 27094 28
21676 27091 27095 28
21677 27096 27097 28
21678 27096 27098 28
21679 27096 27099 28
21680 27096 27100 28
21681 27101 27102 28
21682 27101 27103 28
21683 27101 27104 28
21684 27101 27105 28
21685 27106 27107 28
21686 27106 27108 28
21687 27106 27109 28
21688 27106 27110 28
21689 27111 27112 28
21690 27111 27113 28
21691 27111 27114 28
21692 27111 27115 28
21693 27116 27117 28
21694 27116 27118 28
21695 27116 27119 28
21696 27116 27120 28
21697 27121 27122 28
21698 27121 27123 28
21699 27121 27124 28
21700 27121 27125 28
21701 27126 27127 28
21702 27126 27128 28
21703 27126 27129 28
21704 27126 27130 28
21705 27131 27132 28
21706 27131 27133 28
21707 27131 27134 28
21708 27131 27135 28
21709 27136 27137 28
21710 27136 27138 28
21711 27136 27139 28
21712 27136 27140 28
21713 27141 27142 28
21714 27141 27143 28
21715 27141 27144 28
21716 27141 27145 28
21717 27146 27147 28
21718 27146 27148 28
21719 27146 27149 28
21720 27146 27150 28
21721 27151 27152 28
21722 27151 27153 28
21723 27151 27154 28
21724 27151 27155 28
21725 27156 27157 28
21726 27156 27158 28
21727 27156 27159 28
21728 27156 27160 28
21729 27161 27162 28
21730 27161 27163 28
21731 27161 27164 28
21732 27161 27165 28
21733 27166 27167 28
21734 27166 27168 28
21735 27166 27169 28
21736 27166 27170 28
21737 27171 27172 28
21738 27171 27173 28
21739 27171 27174 28
21740 27171 27175 28
21741 27176 27177 28
21742 27176 27178 28
21743 27176 27179 28
21744 27176 27180 28
21745 27181 27182 28
21746 27181 27183 28
21747 27181 27184 28
21748 27181 27185 28
21749 27186 27187 28
21750 27186 27188 28
21751 27186 27189 28
21752 27186 27190 28
21753 27191 27192 28
21754 27191 27193 28
21755 27191 27194 28
21756 27191 27195 28
21757 27196 27197 28
21758 27196 27198 28
21759 27196 27199 28
21760 27196 27200 28
21761 27201 27202 28
21762 27201 27203 28
21763 27201 27204 28
21764 27201 27205 28
21765 27206 27207 28
21766 27206 27208 28
21767 27206 27209 28
21768 27206 27210 28
21769 27211 27212 28
21770 27211 27213 28
21771 27211 27214 28
21772 27211 27215 28
21773 27216 27217 28
21774 27216 27218 28
21775 27216 27219 28
21776 27216 27220 28
21777 27221 27222 28
21778 27221 27223 28
21779 27221 27224 28
21780 27221 27225 28
21781 27226 27227 28
21782 27226 27228 28
21783 27226 27229 28
21784 27226 27230 28
21785 27231 27232 28
21786 27231 27233 28
21787 27231 27234 28
21788 27231 27235 28
21789 27236 27237 28
21790 27236 27238 28
21791 27236 27239 28
21792 27236 27240 28
21793 27241 27242 28
21794 27241 27243 28
21795 27241 27244 28
21796 27241 27245 28
21797 27246 27247 28
21798 27246 27248 28
21799 27246 27249 28
21800 27246 27250 28
21801 27251 27252 28
21802 27251 27253 28
21803 27251 27254 28
21804 27251 27255 28
21805 27256 27257 28
21806 27256 27258 28
21807 27256 27259 28
21808 27256 27260 28
21809 27261 27262 28
21810 27261 27263 28
21811 27261 27264 28
21812 27261 27265 28
21813 27266 27267 28
21814 27266 27268 28
21815 27266 27269 28
21816 27266 27270 28
21817 27271 27272 28
21818 27271 27273 28
21819 27271 27274 28
21820 27271 27275 28
21821 27276 27277 28
21822 27276 27278 28
21823 27276 27279 28
21824 27276 27280 28
21825 27281 27282 28
21826 27281 27283 28
21827 27281 27284 28
21828 27281 27285 28
21829 27286 27287 28
21830 27286 27288 28
21831 27286 27289 28
21832 27286 27290 28
21833 27291 27292 28
21834 27291 27293 28
21835 27291 27294 28
21836 27291 27295 28
21837 27296 27297 28
21838 27296 27298 28
21839 27296 27299 28
21840 27296 27300 28
21841 27301 27302 28
21842 27301 27303 28
21843 27301 27304 28
21844 27301 27305 28
21845 27306 27307 28
21846 27306 27308 28
21847 27306 27309 28
21848 27306 27310 28
21849 27311 27312 28
21850 27311 27313 28
21851 27311 27314 28
21852 27311 27315 28
21853 27316 27317 28
21854 27316 27318 28
21855 27316 27319 28
21856 27316 27320 28
21857 27321 27322 28
21858 27321 27323 28
21859 27321 27324 28
21860 27321 27325 28
21861 27326 27327 28
21862 27326 27328 28
21863 27326 27329 28
21864 27326 27330 28
21865 27331 27332 28
21866 27331 27333 28
21867 27331 27334 28
21868 27331 27335 28
21869 27336 27337 28
21870 27336 27338 28
21871 27336 27339 28
21872 27336 27340 28
21873 27341 27342 28
21874 27341 27343 28
21875 27341 27344 28
21876 27341 27345 28
21877 27346 27347 28
21878 27346 27348 28
21879 27346 27349 28
21880 27346 27350 28
21881 27351 27352 28
21882 27351 27353 28
21883 27351 27354 28
21884 27351 27355 28
21885 27356 27357 28
21886 27356 27358 28
21887 27356 27359 28
21888 27356 27360 28
21889 27361 27362 28
21890 27361 27363 28
21891 27361 27364 28
21892 27361 27365 28
21893 27366 27367 28
21894 27366 27368 28
21895 27366 27369 28
21896 27366 27370 28
21897 27371 27372 28
21898 27371 27373 28
21899 27371 27374 28
21900 27371 27375 28
21901 27376 27377 28
21902 27376 27378 28
21903 27376 27379 28
21904 27376 27380 28
21905 27381 27382 28
21906 27381 27383 28
21907 27381 27384 28
21908 27381 27385 28
21909 27386 27387 28
21910 27386 27388 28
21911 27386 27389 28
21912 27386 27390 28
21913 27391 27392 28
21914 27391 27393 28
21915 27391 27394 28
21916 27391 27395 28
21917 27396 27397 28
21918 27396 27398 28
21919 27396 27399 28
21920 27396 27400 28
21921 27401 27402 28
21922 27401 27403 28
21923 27401 27404 28
21924 27401 27405 28
21925 27406 27407 28
21926 27406 27408 28
21927 27406 27409 28
21928 27406 27410 28
21929 27411 27412 28
21930 27411 27413 28
21931 27411 27414 28
21932 27411 27415 28
21933 27416 27417 28
21934 27416 27418 28
21935 27416 27419 28
21936 27416 27420 28
21937 27421 27422 28
21938 27421 27423 28
21939 27421 27424 28
21940 27421 27425 28
21941 27426 27427 28
21942 27426 27428 28
21943 27426 27429 28
21944 27426 27430 28
21945 27431 27432 28
21946 27431 27433 28
21947 27431 27434 28
21948 27431 27435 28
21949 27436 27437 28
21950 27436 27438 28
21951 27436 27439 28
21952 27436 27440 28
21953 27441 27442 28
21954 27441 27443 28
21955 27441 27444 28
21956 27441 27445 28
21957 27446 27447 28
21958 27446 27448 28
21959 27446 27449 28
21960 27446 27450 28
21961 27451 27452 28
21962 27451 27453 28
21963 27451 27454 28
21964 27451 27455 28
21965 27456 27457 28
21966 27456 27458 28
21967 27456 27459 28
21968 27456 27460 28
21969 27461 27462 28
21970 27461 27463 28
21971 27461 27464 28
21972 27461 27465 28
21973 27466 27467 28
21974 27466 27468 28
21975 27466 27469 28
21976 27466 27470 28
21977 27471 27472 28
21978 27471 27473 28
21979 27471 27474 28
21980 27471 27475 28
21981 27476 27477 28
21982 27476 27478 28
21983 27476 27479 28
21984 27476 27480 28
21985 27481 27482 28
21986 27481 27483 28
21987 27481 27484 28
21988 27481 27485 28
21989 27486 27487 28
21990 27486 27488 28
21991 27486 27489 28
21992 27486 27490 28
21993 27491 27492 28
21994 27491 27493 28
21995 27491 27494 28
21996 27491 27495 28
21997 27496 27497 28
21998 27496 27498 28
21999 27496 27499 28
22000 27496 27500 28
22001 27501 27502 28
22002 27501 27503 28
22003 27501 27504 28
22004 27501 27505 28
22005 27506 27507 28
22006 27506 27508 28
22007 27506 27509 28
22008 27506 27510 28
22009 27511 27512 28
22010 27511 27513 28
22011 27511 27514 28
22012 27511 27515 28
22013 27516 27517 28
22014 27516 27518 28
22015 27516 27519 28
22016 27516 27520 28
22017 27521 27522 28
22018 27521 27523 28
22019 27521 27524 28
22020 27521 27525 28
22021 27526 27527 28
22022 27526 27528 28
22023 27526 27529 28
22024 27526 27530 28
22025 27531 27532 28
22026 27531 27533 28
22027 27531 27534 28
22028 27531 27535 28
22029 27536 27537 28
22030 27536 27538 28
22031 27536 27539 28
22032 27536 27540 28
22033 27541 27542 28
22034 27541 27543 28
22035 27541 27544 28
22036 27541 27545 28
22037 27546 27547 28
22038 27546 27548 28
22039 27546 27549 28
22040 27546 27550 28
22041 27551 27552 28
22042 27551 27553 28
22043 27551 27554 28
22044 27551 27555 28
22045 27556 27557 28
22046 27556 27558 28
22047 27556 27559 28
22048 27556 27560 28
22049 27561 27562 28
22050 27561 27563 28
22051 27561 27564 28
22052 27561 27565 28
22053 27566 27567 28
22054 27566 27568 28
22055 27566 27569 28
22056 27566 27570 28
22057 27571 27572 28
22058 27571 27573 28
22059 27571 27574 28
22060 27571 27575 28
22061 27576 27577 28
22062 27576 27578 28
22063 27576 27579 28
22064 27576 27580 28
22065 27581 27582 28
22066 27581 27583 28
22067 27581 27584 28
22068 27581 27585 28
22069 27586 27587 28
22070 27586 27588 28
22071 27586 27589 28
22072 27586 27590 28
22073 27591 27592 28
22074 27591 27593 28
22075 27591 27594 28
22076 27591 27595 28
22077 27596 27597 28
22078 27596 27598 28
22079 27596 27599 28
22080 27596 27600 28
22081 27601 27602 28
22082 27601 27603 28
22083 27601 27604 28
22084 27601 27605 28
22085 27606 27607 28
22086 27606 27608 28
22087 27606 27609 28
22088 27606 27610 28
22089 27611 27612 28
22090 27611 27613 28
22091 27611 27614 28
22092 27611 27615 28
22093 27616 27617 28
22094 27616 27618 28
22095 27616 27619 28
22096 27616 27620 28
22097 27621 27622 28
22098 27621 27623 28
22099 27621 27624 28
22100 27621 27625 28
22101 27626 27627 28
22102 27626 27628 28
22103 27626 27629 28
22104 27626 27630 28
22105 27631 27632 28
22106 27631 27633 28
22107 27631 27634 28
22108 27631 27635 28
22109 27636 27637 28
22110 27636 27638 28
22111 27636 27639 28
22112 27636 27640 28
22113 27641 27642 28
22114 27641 27643 28
22115 27641 27644 28
22116 27641 27645 28
22117 27646 27647 28
22118 27646 27648 28
22119 27646 27649 28
22120 27646 27650 28
22121 27651 27652 28
22122 27651 27653 28
22123 27651 27654 28
22124 27651 27655 28
22125 27656 27657 28
22126 27656 27658 28
22127 27656 27659 28
22128 27656 27660 28
22129 27661 27662 28
22130 27661 27663 28
22131 27661 27664 28
22132 27661 27665 28
22133 27666 27667 28
22134 27666 27668 28
22135 27666 27669 28
22136 27666 27670 28
22137 27671 27672 28
22138 27671 27673 28
22139 27671 27674 28
22140 27671 27675 28
22141 27676 27677 28
22142 27676 27678 28
22143 27676 27679 28
22144 27676 27680 28
22145 27681 27682 28
22146 27681 27683 28
22147 27681 27684 28
22148 27681 27685 28
22149 27686 27687 28
22150 27686 27688 28
22151 27686 27689 28
22152 27686 27690 28
22153 27691 27692 28
22154 27691 27693 28
22155 27691 27694 28
22156 27691 27695 28
22157 27696 27697 28
22158 27696 27698 28
22159 27696 27699 28
22160 27696 27700 28
22161 27701 27702 28
22162 27701 27703 28
22163 27701 27704 28
22164 27701 27705 28
22165 27706 27707 28
22166 27706 27708 28
22167 27706 27709 28
22168 27706 27710 28
22169 27711 27712 28
22170 27711 27713 28
22171 27711 27714 28
22172 27711 27715 28
22173 27716 27717 28
22174 27716 27718 28
22175 27716 27719 28
22176 27716 27720 28
22177 27721 27722 28
22178 27721 27723 28
22179 27721 27724 28
22180 27721 27725 28
22181 27726 27727 28
22182 27726 27728 28
22183 27726 27729 28
22184 27726 27730 28
22185 27731 27732 28
22186 27731 27733 28
22187 27731 27734 28
22188 27731 27735 28
22189 27736 27737 28
22190 27736 27738 28
22191 27736 27739 28
22192 27736 27740 28
22193 27741 27742 28
22194 27741 27743 28
22195 27741 27744 28
22196 27741 27745 28
22197 27746 27747 28
22198 27746 27748 28
22199 27746 27749 28
22200 27746 27750 28
22201 27751 27752 28
22202 27751 27753 28
22203 27751 27754 28
22204 27751 27755 28
22205 27756 27757 28
22206 27756 27758 28
22207 27756 27759 28
22208 27756 27760 28
22209 27761 27762 28
22210 27761 27763 28
22211 27761 27764 28
22212 27761 27765 28
22213 27766 27767 28
22214 27766 27768 28
22215 27766 27769 28
22216 27766 27770 28
22217 27771 27772 28
22218 27771 27773 28
22219 27771 27774 28
22220 27771 27775 28
22221 27776 27777 28
22222 27776 27778 28
22223 27776 27779 28
22224 27776 27780 28
22225 27781 27782 28
22226 27781 27783 28
22227 27781 27784 28
22228 27781 27785 28
22229 27786 27787 28
22230 27786 27788 28
22231 27786 27789 28
22232 27786 27790 28
22233 27791 27792 28
22234 27791 27793 28
22235 27791 27794 28
22236 27791 27795 28
22237 27796 27797 28
22238 27796 27798 28
22239 27796 27799 28
22240 27796 27800 28
22241 27801 27802 28
22242 27801 27803 28
22243 27801 27804 28
22244 27801 27805 28
22245 27806 27807 28
22246 27806 27808 28
22247 27806 27809 28
22248 27806 27810 28
22249 27811 27812 28
22250 27811 27813 28
22251 27811 27814 28
22252 27811 27815 28
22253 27816 27817 28
22254 27816 27818 28
22255 27816 27819 28
22256 27816 27820 28
22257 27821 27822 28
22258 27821 27823 28
22259 27821 27824 28
22260 27821 27825 28
22261 27826 27827 28
22262 27826 27828 28
22263 27826 27829 28
22264 27826 27830 28
22265 27831 27832 28
22266 27831 27833 28
22267 27831 27834 28
22268 27831 27835 28
22269 27836 27837 28
22270 27836 27838 28
22271 27836 27839 28
22272 27836 27840 28
22273 27841 27842 28
22274 27841 27843 28
22275 27841 27844 28
22276 27841 27845 28
22277 27846 27847 28
22278 27846 27848 28
22279 27846 27849 28
22280 27846 27850 28
22281 27851 27852 28
22282 27851 27853 28
22283 27851 27854 28
22284 27851 27855 28
22285 27856 27857 28
22286 27856 27858 28
22287 27856 27859 28
22288 27856 27860 28
22289 27861 27862 28
22290 27861 27863 28
22291 27861 27864 28
22292 27861 27865 28
22293 27866 27867 28
22294 27866 27868 28
22295 27866 27869 28
22296 27866 27870 28
22297 27871 27872 28
22298 27871 27873 28
22299 27871 27874 28
22300 27871 27875 28
22301 27876 27877 28
22302 27876 27878 28
22303 27876 27879 28
22304 27876 27880 28
22305 27881 27882 28
22306 27881 27883 28
22307 27881 27884 28
22308 27881 27885 28
22309 27886 27887 28
22310 27886 27888 28
22311 27886 27889 28
22312 27886 27890 28
22313 27891 27892 28
22314 27891 27893 28
22315 27891 27894 28
22316 27891 27895 28
22317 27896 27897 28
22318 27896 27898 28
22319 27896 27899 28
22320 27896 27900 28
22321 27901 27902 28
22322 27901 27903 28
22323 27901 27904 28
22324 27901 27905 28
22325 27906 27907 28
22326 27906 27908 28
22327 27906 27909 28
22328 27906 27910 28
22329 27911 27912 28
22330 27911 27913 28
22331 27911 27914 28
22332 27911 27915 28
22333 27916 27917 28
22334 27916 27918 28
22335 27916 27919 28
22336 27916 27920 28
22337 27921 27922 28
22338 27921 27923 28
22339 27921 27924 28
22340 27921 27925 28
22341 27926 27927 28
22342 27926 27928 28
22343 27926 27929 28
22344 27926 27930 28
22345 27931 27932 28
22346 27931 27933 28
22347 27931 27934 28
22348 27931 27935 28
22349 27936 27937 28
22350 27936 27938 28
22351 27936 27939 28
22352 27936 27940 28
22353 27941 27942 28
22354 27941 27943 28
22355 27941 27944 28
22356 27941 27945 28
22357 27946 27947 28
22358 27946 27948 28
22359 27946 27949 28
22360 27946 27950 28
22361 27951 27952 28
22362 27951 27953 28
22363 27951 27954 28
22364 27951 27955 28
22365 27956 27957 28
22366 27956 27958 28
22367 27956 27959 28
22368 27956 27960 28
22369 27961 27962 28
22370 27961 27963 28
22371 27961 27964 28
22372 27961 27965 28
22373 27966 27967 28
22374 27966 27968 28
22375 27966 27969 28
22376 27966 27970 28
22377 27971 27972 28
22378 27971 27973 28
22379 27971 27974 28
22380 27971 27975 28
22381 27976 27977 28
22382 27976 27978 28
22383 27976 27979 28
22384 27976 27980 28
22385 27981 27982 28
22386 27981 27983 28
22387 27981 27984 28
22388 27981 27985 28
22389 27986 27987 28
22390 27986 27988 28
22391 27986 27989 28
22392 27986 27990 28
22393 27991 27992 28
22394 27991 27993 28
22395 27991 27994 28
22396 27991 27995 28
22397 27996 27997 28
22398 27996 27998 28
22399 27996 27999 28
22400 27996 28000 28
22401 28001 28002 28
22402 28001 28003 28
22403 28001 28004 28
22404 28001 28005 28
22405 28006 28007 28
22406 28006 28008 28
22407 28006 28009 28
22408 28006 28010 28
22409 28011 28012 28
22410 28011 28013 28
22411 28011 28014 28
22412 28011 28015 28
22413 28016 28017 28
22414 28016 28018 28
22415 28016 28019 28
22416 28016 28020 28
22417 28021 28022 28
22418 28021 28023 28
22419 28021 28024 28
22420 28021 28025 28
22421 28026 28027 28
22422 28026 28028 28
22423 28026 28029 28
22424 28026 28030 28
22425 28031 28032 28
22426 28031 28033 28
22427 28031 28034 28
22428 28031 28035 28
22429 28036 28037 28
22430 28036 28038 28
22431 28036 28039 28
22432 28036 28040 28
22433 28041 28042 28
22434 28041 28043 28
22435 28041 28044 28
22436 28041 28045 28
22437 28046 28047 28
22438 28046 28048 28
22439 28046 28049 28
22440 28046 28050 28
22441 28051 28052 28
22442 28051 28053 28
22443 28051 28054 28
22444 28051 28055 28
22445 28056 28057 28
22446 28056 28058 28
22447 28056 28059 28
22448 28056 28060 28
22449 28061 28062 28
22450 28061 28063 28
22451 28061 28064 28
22452 28061 28065 28
22453 28066 28067 28
22454 28066 28068 28
22455 28066 28069 28
22456 28066 28070 28
22457 28071 28072 28
22458 28071 28073 28
22459 28071 28074 28
22460 28071 28075 28
22461 28076 28077 28
22462 28076 28078 28
22463 28076 28079 28
22464 28076 28080 28
22465 28081 28082 28
22466 28081 28083 28
22467 28081 28084 28
22468 28081 28085 28
22469 28086 28087 28
22470 28086 28088 28
22471 28086 28089 28
22472 28086 28090 28
22473 28091 28092 28
22474 28091 28093 28
22475 28091 28094 28
22476 28091 28095 28
22477 28096 28097 28
22478 28096 28098 28
22479 28096 28099 28
22480 28096 28100 28
22481 28101 28102 28
22482 28101 28103 28
22483 28101 28104 28
22484 28101 28105 28
22485 28106 28107 28
22486 28106 28108 28
22487 28106 28109 28
22488 28106 28110 28
22489 28111 28112 28
22490 28111 28113 28
22491 28111 28114 28
22492 28111 28115 28
22493 28116 28117 28
22494 28116 28118 28
22495 28116 28119 28
22496 28116 28120 28
22497 28121 28122 28
22498 28121 28123 28
22499 28121 28124 28
22500 28121 28125 28
22501 28126 28127 28
22502 28126 28128 28
22503 28126 28129 28
22504 28126 28130 28
22505 28131 28132 28
22506 28131 28133 28
22507 28131 28134 28
22508 28131 28135 28
22509 28136 28137 28
22510 28136 28138 28
22511 28136 28139 28
22512 28136 28140 28
22513 28141 28142 28
22514 28141 28143 28
22515 28141 28144 28
22516 28141 28145 28
22517 28146 28147 28
22518 28146 28148 28
22519 28146 28149 28
22520 28146 28150 28
22521 28151 28152 28
22522 28151 28153 28
22523 28151 28154 28
22524 28151 28155 28
22525 28156 28157 28
22526 28156 28158 28
22527 28156 28159 28
22528 28156 28160 28
22529 28161 28162 28
22530 28161 28163 28
22531 28161 28164 28
22532 28161 28165 28
22533 28166 28167 28
22534 28166 28168 28
22535 28166 28169 28
22536 28166 28170 28
22537 28171 28172 28
22538 28171 28173 28
22539 28171 28174 28
22540 28171 28175 28
22541 28176 28177 28
22542 28176 28178 28
22543 28176 28179 28
22544 28176 28180 28
22545 28181 28182 28
22546 28181 28183 28
22547 28181 28184 28
22548 28181 28185 28
22549 28186 28187 28
22550 28186 28188 28
22551 28186 28189 28
22552 28186 28190 28
22553 28191 28192 28
22554 28191 28193 28
22555 28191 28194 28
22556 28191 28195 28
22557 28196 28197 28
22558 28196 28198 28
22559 28196 28199 28
22560 28196 28200 28
22561 28201 28202 28
22562 28201 28203 28
22563 28201 28204 28
22564 28201 28205 28
22565 28206 28207 28
22566 28206 28208 28
22567 28206 28209 28
22568 28206 28210 28
22569 28211 28212 28
22570 28211 28213 28
22571 28211 28214 28
22572 28211 28215 28
22573 28216 28217 28
22574 28216 28218 28
22575 28216 28219 28
22576 28216 28220 28
22577 28221 28222 28
22578 28221 28223 28
22579 28221 28224 28
22580 28221 28225 28
22581 28226 28227 28
22582 28226 28228 28
22583 28226 28229 28
22584 28226 28230 28
22585 28231 28232 28
22586 28231 28233 28
22587 28231 28234 28
22588 28231 28235 28
22589 28236 28237 28
22590 28236 28238 28
22591 28236 28239 28
22592 28236 28240 28
22593 28241 28242 28
22594 28241 28243 28
22595 28241 28244 28
22596 28241 28245 28
22597 28246 28247 28
22598 28246 28248 28
22599 28246 28249 28
22600 28246 28250 28
22601 28251 28252 28
22602 28251 28253 28
22603 28251 28254 28
22604 28251 28255 28
22605 28256 28257 28
22606 28256 28258 28
22607 28256 28259 28
22608 28256 28260 28
22609 28261 28262 28
22610 28261 28263 28
22611 28261 28264 28
22612 28261 28265 28
22613 28266 28267 28
22614 28266 28268 28
22615 28266 28269 28
22616 28266 28270 28
22617 28271 28272 28
22618 28271 28273 28
22619 28271 28274 28
22620 28271 28275 28
22621 28276 28277 28
22622 28276 28278 28
22623 28276 28279 28
22624 28276 28280 28
22625 28281 28282 28
22626 28281 28283 28
22627 28281 28284 28
22628 28281 28285 28
22629 28286 28287 28
22630 28286 28288 28
22631 28286 28289 28
22632 28286 28290 28
22633 28291 28292 28
22634 28291 28293 28
22635 28291 28294 28
22636 28291 28295 28
22637 28296 28297 28
22638 28296 28298 28
22639 28296 28299 28
22640 28296 28300 28
22641 28301 28302 28
22642 28301 28303 28
22643 28301 28304 28
22644 28301 28305 28
22645 28306 28307 28
22646 28306 28308 28
22647 28306 28309 28
22648 28306 28310 28
22649 28311 28312 28
22650 28311 28313 28
22651 28311 28314 28
22652 28311 28315 28
22653 28316 28317 28
22654 28316 28318 28
22655 28316 28319 28
22656 28316 28320 28
22657 28321 28322 28
22658 28321 28323 28
22659 28321 28324 28
22660 28321 28325 28
22661 28326 28327 28
22662 28326 28328 28
22663 28326 28329 28
22664 28326 28330 28
22665 28331 28332 28
22666 28331 28333 28
22667 28331 28334 28
22668 28331 28335 28
22669 28336 28337 28
22670 28336 28338 28
22671 28336 28339 28
22672 28336 28340 28
22673 28341 28342 28
22674 28341 28343 28
22675 28341 28344 28
22676 28341 28345 28
22677 28346 28347 28
22678 28346 28348 28
22679 28346 28349 28
22680 28346 28350 28
22681 28351 28352 28
22682 28351 28353 28
22683 28351 28354 28
22684 28351 28355 28
22685 28356 28357 28
22686 28356 28358 28
22687 28356 28359 28
22688 28356 28360 28
22689 28361 28362 28
22690 28361 28363 28
22691 28361 28364 28
22692 28361 28365 28
22693 28366 28367 28
22694 28366 28368 28
22695 28366 28369 28
22696 28366 28370 28
22697 28371 28372 28
22698 28371 28373 28
22699 28371 28374 28
22700 28371 28375 28
22701 28376 28377 28
22702 28376 28378 28
22703 28376 28379 28
22704 28376 28380 28
22705 28381 28382 28
22706 28381 28383 28
22707 28381 28384 28
22708 28381 28385 28
22709 28386 28387 28
22710 28386 28388 28
22711 28386 28389 28
22712 28386 28390 28
22713 28391 28392 28
22714 28391 28393 28
22715 28391 28394 28
22716 28391 28395 28
22717 28396 28397 28
22718 28396 28398 28
22719 28396 28399 28
22720 28396 28400 28
22721 28401 28402 28
22722 28401 28403 28
22723 28401 28404 28
22724 28401 28405 28
22725 28406 28407 28
22726 28406 28408 28
22727 28406 28409 28
22728 28406 28410 28
22729 28411 28412 28
22730 28411 28413 28
22731 28411 28414 28
22732 28411 28415 28
22733 28416 28417 28
22734 28416 28418 28
22735 28416 28419 28
22736 28416 28420 28
22737 28421 28422 28
22738 28421 28423 28
22739 28421 28424 28
22740 28421 28425 28
22741 28426 28427 28
22742 28426 28428 28
22743 28426 28429 28
22744 28426 28430 28
22745 28431 28432 28
22746 28431 28433 28
22747 28431 28434 28
22748 28431 28435 28
22749 28436 28437 28
22750 28436 28438 28
22751 28436 28439 28
22752 28436 28440 28
22753 28441 28442 28
22754 28441 28443 28
22755 28441 28444 28
22756 28441 28445 28
22757 28446 28447 28
22758 28446 28448 28
22759 28446 28449 28
22760 28446 28450 28
22761 28451 28452 28
22762 28451 28453 28
22763 28451 28454 28
22764 28451 28455 28
22765 28456 28457 28
22766 28456 28458 28
22767 28456 28459 28
22768 28456 28460 28
22769 28461 28462 28
22770 28461 28463 28
22771 28461 28464 28
22772 28461 28465 28
22773 28466 28467 28
22774 28466 28468 28
22775 28466 28469 28
22776 28466 28470 28
22777 28471 28472 28
22778 28471 28473 28
22779 28471 28474 28
22780 28471 28475 28
22781 28476 28477 28
22782 28476 28478 28
22783 28476 28479 28
22784 28476 28480 28
22785 28481 28482 28
22786 28481 28483 28
22787 28481 28484 28
22788 28481 28485 28
22789 28486 28487 28
22790 28486 28488 28
22791 28486 28489 28
22792 28486 28490 28
22793 28491 28492 28
22794 28491 28493 28
22795 28491 28494 28
22796 28491 28495 28
22797 28496 28497 28
22798 28496 28498 28
22799 28496 28499 28
22800 28496 28500 28
22801 28501 28502 28
22802 28501 28503 28
22803 28501 28504 28
22804 28501 28505 28
22805 28506 28507 28
22806 28506 28508 28
22807 28506 28509 28
22808 28506 28510 28
22809 28511 28512 28
22810 28511 28513 28
22811 28511 28514 28
22812 28511 28515 28
22813 28516 28517 28
22814 28516 28518 28
22815 28516 28519 28
22816 28516 28520 28
22817 28521 28522 28
22818 28521 28523 28
22819 28521 28524 28
22820 28521 28525 28
22821 28526 28527 28
22822 28526 28528 28
22823 28526 28529 28
22824 28526 28530 28
22825 28531 28532 28
22826 28531 28533 28
22827 28531 28534 28
22828 28531 28535 28
22829 28536 28537 28
22830 28536 28538 28
22831 28536 28539 28
22832 28536 28540 28
22833 28541 28542 28
22834 28541 28543 28
22835 28541 28544 28
22836 28541 28545 28
22837 28546 28547 28
22838 28546 28548 28
22839 28546 28549 28
22840 28546 28550 28
22841 28551 28552 28
22842 28551 28553 28
22843 28551 28554 28
22844 28551 28555 28
22845 28556 28557 28
22846 28556 28558 28
22847 28556 28559 28
22848 28556 28560 28
22849 28561 28562 28
22850 28561 28563 28
22851 28561 28564 28
22852 28561 28565 28
22853 28566 28567 28
22854 28566 28568 28
22855 28566 28569 28
22856 28566 28570 28
22857 28571 28572 28
22858 28571 28573 28
22859 28571 28574 28
22860 28571 28575 28
22861 28576 28577 28
22862 28576 28578 28
22863 28576 28579 28
22864 28576 28580 28
22865 28581 28582 28
22866 28581 28583 28
22867 28581 28584 28
22868 28581 28585 28
22869 28586 28587 28
22870 28586 28588 28
22871 28586 28589 28
22872 28586 28590 28
22873 28591 28592 28
22874 28591 28593 28
22875 28591 28594 28
22876 28591 28595 28
22877 28596 28597 28
22878 28596 28598 28
22879 28596 28599 28
22880 28596 28600 28
22881 28601 28602 28
22882 28601 28603 28
22883 28601 28604 28
22884 28601 28605 28
22885 28606 28607 28
22886 28606 28608 28
22887 28606 28609 28
22888 28606 28610 28
22889 28611 28612 28
22890 28611 28613 28
22891 28611 28614 28
22892 28611 28615 28
22893 28616 28617 28
22894 28616 28618 28
22895 28616 28619 28
22896 28616 28620 28
22897 28621 28622 28
22898 28621 28623 28
22899 28621 28624 28
22900 28621 28625 28
22901 28626 28627 28
22902 28626 28628 28
22903 28626 28629 28
22904 28626 28630 28
22905 28631 28632 28
22906 28631 28633 28
22907 28631 28634 28
22908 28631 28635 28
22909 28636 28637 28
22910 28636 28638 28
22911 28636 28639 28
22912 28636 28640 28
22913 28641 28642 28
22914 28641 28643 28
22915 28641 28644 28
22916 28641 28645 28
22917 28646 28647 28
22918 28646 28648 28
22919 28646 28649 28
22920 28646 28650 28
22921 28651 28652 28
22922 28651 28653 28
22923 28651 28654 28
22924 28651 28655 28
22925 28656 28657 28
22926 28656 28658 28
22927 28656 28659 28
22928 28656 28660 28
22929 28661 28662 28
22930 28661 28663 28
22931 28661 28664 28
22932 28661 28665 28
22933 28666 28667 28
22934 28666 28668 28
22935 28666 28669 28
22936 28666 28670 28
22937 28671 28672 28
22938 28671 28673 28
22939 28671 28674 28
22940 28671 28675 28
22941 28676 28677 28
22942 28676 28678 28
22943 28676 28679 28
22944 28676 28680 28
22945 28681 28682 28
22946 28681 28683 28
22947 28681 28684 28
22948 28681 28685 28
22949 28686 28687 28
22950 28686 28688 28
22951 28686 28689 28
22952 28686 28690 28
22953 28691 28692 28
22954 28691 28693 28
22955 28691 28694 28
22956 28691 28695 28
22957 28696 28697 28
22958 28696 28698 28
22959 28696 28699 28
22960 28696 28700 28
22961 28701 28702 28
22962 28701 28703 28
22963 28701 28704 28
22964 28701 28705 28
22965 28706 28707 28
22966 28706 28708 28
22967 28706 28709 28
22968 28706 28710 28
22969 28711 28712 28
22970 28711 28713 28
22971 28711 28714 28
22972 28711 28715 28
22973 28716 28717 28
22974 28716 28718 28
22975 28716 28719 28
22976 28716 28720 28
22977 28721 28722 28
22978 28721 28723 28
22979 28721 28724 28
22980 28721 28725 28
22981 28726 28727 28
22982 28726 28728 28
22983 28726 28729 28
22984 28726 28730 28
22985 28731 28732 28
22986 28731 28733 28
22987 28731 28734 28
22988 28731 28735 28
22989 28736 28737 28
22990 28736 28738 28
22991 28736 28739 28
22992 28736 28740 28
22993 28741 28742 28
22994 28741 28743 28
22995 28741 28744 28
22996 28741 28745 28
22997 28746 28747 28
22998 28746 28748 28
22999 28746 28749 28
23000 28746 28750 28
23001 28751 28752 28
23002 28751 28753 28
23003 28751 28754 28
23004 28751 28755 28
23005 28756 28757 28
23006 28756 28758 28
23007 28756 28759 28
23008 28756 28760 28
23009 28761 28762 28
23010 28761 28763 28
23011 28761 28764 28
23012 28761 28765 28
23013 28766 28767 28
23014 28766 28768 28
23015 28766 28769 28
23016 28766 28770 28
23017 28771 28772 28
23018 28771 28773 28
23019 28771 28774 28
23020 28771 28775 28
23021 28776 28777 28
23022 28776 28778 28
23023 28776 28779 28
23024 28776 28780 28
23025 28781 28782 28
23026 28781 28783 28
23027 28781 28784 28
23028 28781 28785 28
23029 28786 28787 28
23030 28786 28788 28
23031 28786 28789 28
23032 28786 28790 28
23033 28791 28792 28
23034 28791 28793 28
23035 28791 28794 28
23036 28791 28795 28
23037 28796 28797 28
23038 28796 28798 28
23039 28796 28799 28
23040 28796 28800 28
23041 28801 28802 28
23042 28801 28803 28
23043 28801 28804 28
23044 28801 28805 28
23045 28806 28807 28
23046 28806 28808 28
23047 28806 28809 28
23048 28806 28810 28
23049 28811 28812 28
23050 28811 28813 28
23051 28811 28814 28
23052 28811 28815 28
23053 28816 28817 28
23054 28816 28818 28
23055 28816 28819 28
23056 28816 28820 28
23057 28821 28822 28
23058 28821 28823 28
23059 28821 28824 28
23060 28821 28825 28
23061 28826 28827 28
23062 28826 28828 28
23063 28826 28829 28
23064 28826 28830 28
23065 28831 28832 28
23066 28831 28833 28
23067 28831 28834 28
23068 28831 28835 28
23069 28836 28837 28
23070 28836 28838 28
23071 28836 28839 28
23072 28836 28840 28
23073 28841 28842 28
23074 28841 28843 28
23075 28841 28844 28
23076 28841 28845 28
23077 28846 28847 28
23078 28846 28848 28
23079 28846 28849 28
23080 28846 28850 28
23081 28851 28852 28
23082 28851 28853 28
23083 28851 28854 28
23084 28851 28855 28
23085 28856 28857 28
23086 28856 28858 28
23087 28856 28859 28
23088 28856 28860 28
23089 28861 28862 28
23090 28861 28863 28
23091 28861 28864 28
23092 28861 28865 28
23093 28866 28867 28
23094 28866 28868 28
23095 28866 28869 28
23096 28866 28870 28
23097 28871 28872 28
23098 28871 28873 28
23099 28871 28874 28
23100 28871 28875 28
23101 28876 28877 28
23102 28876 28878 28
23103 28876 28879 28
23104 28876 28880 28
23105 28881 28882 28
23106 28881 28883 28
23107 28881 28884 28
23108 28881 28885 28
23109 28886 28887 28
23110 28886 28888 28
23111 28886 28889 28
23112 28886 28890 28
23113 28891 28892 28
23114 28891 28893 28
23115 28891 28894 28
23116 28891 28895 28
23117 28896 28897 28
23118 28896 28898 28
23119 28896 28899 28
23120 28896 28900 28
23121 28901 28902 28
23122 28901 28903 28
23123 28901 28904 28
23124 28901 28905 28
23125 28906 28907 28
23126 28906 28908 28
23127 28906 28909 28
23128 28906 28910 28
23129 28911 28912 28
23130 28911 28913 28
23131 28911 28914 28
23132 28911 28915 28
23133 28916 28917 28
23134 28916 28918 28
23135 28916 28919 28
23136 28916 28920 28
23137 28921 28922 28
23138 28921 28923 28
23139 28921 28924 28
23140 28921 28925 28
23141 28926 28927 28
23142 28926 28928 28
23143 28926 28929 28
23144 28926 28930 28
23145 28931 28932 28
23146 28931 28933 28
23147 28931 28934 28
23148 28931 28935 28
23149 28936 28937 28
23150 28936 28938 28
23151 28936 28939 28
23152 28936 28940 28
23153 28941 28942 28
23154 28941 28943 28
23155 28941 28944 28
23156 28941 28945 28
23157 28946 28947 28
23158 28946 28948 28
23159 28946 28949 28
23160 28946 28950 28
23161 28951 28952 28
23162 28951 28953 28
23163 28951 28954 28
23164 28951 28955 28
23165 28956 28957 28
23166 28956 28958 28
23167 28956 28959 28
23168 28956 28960 28
23169 28961 28962 28
23170 28961 28963 28
23171 28961 28964 28
23172 28961 28965 28
23173 28966 28967 28
23174 28966 28968 28
23175 28966 28969 28
23176 28966 28970 28
23177 28971 28972 28
23178 28971 28973 28
23179 28971 28974 28
23180 28971 28975 28
23181 28976 28977 28
23182 28976 28978 28
23183 28976 28979 28
23184 28976 28980 28
23185 28981 28982 28
23186 28981 28983 28
23187 28981 28984 28
23188 28981 28985 28
23189 28986 28987 28
23190 28986 28988 28
23191 28986 28989 28
23192 28986 28990 28
23193 28991 28992 28
23194 28991 28993 28
23195 28991 28994 28
23196 28991 28995 28
23197 28996 28997 28
23198 28996 28998 28
23199 28996 28999 28
23200 28996 29000 28
23201 29001 29002 28
23202 29001 29003 28
23203 29001 29004 28
23204 29001 29005 28
23205 29006 29007 28
23206 29006 29008 28
23207 29006 29009 28
23208 29006 29010 28
23209 29011 29012 28
23210 29011 29013 28
23211 29011 29014 28
23212 29011 29015 28
23213 29016 29017 28
23214 29016 29018 28
23215 29016 29019 28
23216 29016 29020 28
23217 29021 29022 28
23218 29021 29023 28
23219 29021 29024 28
23220 29021 29025 28
23221 29026 29027 28
23222 29026 29028 28
23223 29026 29029 28
23224 29026 29030 28
23225 29031 29032 28
23226 29031 29033 28
23227 29031 29034 28
23228 29031 29035 28
23229 29036 29037 28
23230 29036 29038 28
23231 29036 29039 28
23232 29036 29040 28
23233 29041 29042 28
23234 29041 29043 28
23235 29041 29044 28
23236 29041 29045 28
23237 29046 29047 28
23238 29046 29048 28
23239 29046 29049 28
23240 29046 29050 28
23241 29051 29052 28
23242 29051 29053 28
23243 29051 29054 28
23244 29051 29055 28
23245 29056 29057 28
23246 29056 29058 28
23247 29056 29059 28
23248 29056 29060 28
23249 29061 29062 28
23250 29061 29063 28
23251 29061 29064 28
23252 29061 29065 28
23253 29066 29067 28
23254 29066 29068 28
23255 29066 29069 28
23256 29066 29070 28
23257 29071 29072 28
23258 29071 29073 28
23259 29071 29074 28
23260 29071 29075 28
23261 29076 29077 28
23262 29076 29078 28
23263 29076 29079 28
23264 29076 29080 28
23265 29081 29082 28
23266 29081 29083 28
23267 29081 29084 28
23268 29081 29085 28
23269 29086 29087 28
23270 29086 29088 28
23271 29086 29089 28
23272 29086 29090 28
23273 29091 29092 28
23274 29091 29093 28
23275 29091 29094 28
23276 29091 29095 28
23277 29096 29097 28
23278 29096 29098 28
23279 29096 29099 28
23280 29096 29100 28
23281 29101 29102 28
23282 29101 29103 28
23283 29101 29104 28
23284 29101 29105 28
23285 29106 29107 28
23286 29106 29108 28
23287 29106 29109 28
23288 29106 29110 28
23289 29111 29112 28
23290 29111 29113 28
23291 29111 29114 28
23292 29111 29115 28
23293 29116 29117 28
23294 29116 29118 28
23295 29116 29119 28
23296 29116 29120 28
23297 29121 29122 28
23298 29121 29123 28
23299 29121 29124 28
23300 29121 29125 28
23301 29126 29127 28
23302 29126 29128 28
23303 29126 29129 28
23304 29126 29130 28
23305 29131 29132 28
23306 29131 29133 28
23307 29131 29134 28
23308 29131 29135 28
23309 29136 29137 28
23310 29136 29138 28
23311 29136 29139 28
23312 29136 29140 28
23313 29141 29142 28
23314 29141 29143 28
23315 29141 29144 28
23316 29141 29145 28
23317 29146 29147 28
23318 29146 29148 28
23319 29146 29149 28
23320 29146 29150 28
23321 29151 29152 28
23322 29151 29153 28
23323 29151 29154 28
23324 29151 29155 28
23325 29156 29157 28
23326 29156 29158 28
23327 29156 29159 28
23328 29156 29160 28
23329 29161 29162 28
23330 29161 29163 28
23331 29161 29164 28
23332 29161 29165 28
23333 29166 29167 28
23334 29166 29168 28
23335 29166 29169 28
23336 29166 29170 28
23337 29171 29172 28
23338 29171 29173 28
23339 29171 29174 28
23340 29171 29175 28
23341 29176 29177 28
23342 29176 29178 28
23343 29176 29179 28
23344 29176 29180 28
23345 29181 29182 28
23346 29181 29183 28
23347 29181 29184 28
23348 29181 29185 28
23349 29186 29187 28
23350 29186 29188 28
23351 29186 29189 28
23352 29186 29190 28
23353 29191 29192 28
23354 29191 29193 28
23355 29191 29194 28
23356 29191 29195 28
23357 29196 29197 28
23358 29196 29198 28
23359 29196 29199 28
23360 29196 29200 28
23361 29201 29202 28
23362 29201 29203 28
23363 29201 29204 28
23364 29201 29205 28
23365 29206 29207 28
23366 29206 29208 28
23367 29206 29209 28
23368 29206 29210 28
23369 29211 29212 28
23370 29211 29213 28
23371 29211 29214 28
23372 29211 29215 28
23373 29216 29217 28
23374 29216 29218 28
23375 29216 29219 28
23376 29216 29220 28
23377 29221 29222 28
23378 29221 29223 28
23379 29221 29224 28
23380 29221 29225 28
23381 29226 29227 28
23382 29226 29228 28
23383 29226 29229 28
23384 29226 29230 28
23385 29231 29232 28
23386 29231 29233 28
23387 29231 29234 28
23388 29231 29235 28
23389 29236 29237 28
23390 29236 29238 28
23391 29236 29239 28
23392 29236 29240 28
23393 29241 29242 28
23394 29241 29243 28
23395 29241 29244 28
23396 29241 29245 28
23397 29246 29247 28
23398 29246 29248 28
23399 29246 29249 28
23400 29246 29250 28
23401 29251 29252 28
23402 29251 29253 28
23403 29251 29254 28
23404 29251 29255 28
23405 29256 29257 28
23406 29256 29258 28
23407 29256 29259 28
23408 29256 29260 28
23409 29261 29262 28
23410 29261 29263 28
23411 29261 29264 28
23412 29261 29265 28
23413 29266 29267 28
23414 29266 29268 28
23415 29266 29269 28
23416 29266 29270 28
23417 29271 29272 28
23418 29271 29273 28
23419 29271 29274 28
23420 29271 29275 28
23421 29276 29277 28
23422 29276 29278 28
23423 29276 29279 28
23424 29276 29280 28
23425 29281 29282 28
23426 29281 29283 28
23427 29281 29284 28
23428 29281 29285 28
23429 29286 29287 28
23430 29286 29288 28
23431 29286 29289 28
23432 29286 29290 28
23433 29291 29292 28
23434 29291 29293 28
23435 29291 29294 28
23436 29291 29295 28
23437 29296 29297 28
23438 29296 29298 28
23439 29296 29299 28
23440 29296 29300 28
23441 29301 29302 28
23442 29301 29303 28
23443 29301 29304 28
23444 29301 29305 28
23445 29306 29307 28
23446 29306 29308 28
23447 29306 29309 28
23448 29306 29310 28
23449 29311 29312 28
23450 29311 29313 28
23451 29311 29314 28
23452 29311 29315 28
23453 29316 29317 28
23454 29316 29318 28
23455 29316 29319 28
23456 29316 29320 28
23457 29321 29322 28
23458 29321 29323 28
23459 29321 29324 28
23460 29321 29325 28
23461 29326 29327 28
23462 29326 29328 28
23463 29326 29329 28
23464 29326 29330 28
23465 29331 29332 28
23466 29331 29333 28
23467 29331 29334 28
23468 29331 29335 28
23469 29336 29337 28
23470 29336 29338 28
23471 29336 29339 28
23472 29336 29340 28
23473 29341 29342 28
23474 29341 29343 28
23475 29341 29344 28
23476 29341 29345 28
23477 29346 29347 28
23478 29346 29348 28
23479 29346 29349 28
23480 29346 29350 28
23481 29351 29352 28
23482 29351 29353 28
23483 29351 29354 28
23484 29351 29355 28
23485 29356 29357 28
23486 29356 29358 28
23487 29356 29359 28
23488 29356 29360 28
23489 29361 29362 28
23490 29361 29363 28
23491 29361 29364 28
23492 29361 29365 28
23493 29366 29367 28
23494 29366 29368 28
23495 29366 29369 28
23496 29366 29370 28
23497 29371 29372 28
23498 29371 29373 28
23499 29371 29374 28
23500 29371 29375 28
23501 29376 29377 28
23502 29376 29378 28
23503 29376 29379 28
23504 29376 29380 28
23505 29381 29382 28
23506 29381 29383 28
23507 29381 29384 28
23508 29381 29385 28
23509 29386 29387 28
23510 29386 29388 28
23511 29386 29389 28
23512 29386 29390 28
23513 29391 29392 28
23514 29391 29393 28
23515 29391 29394 28
23516 29391 29395 28
23517 29396 29397 28
23518 29396 29398 28
23519 29396 29399 28
23520 29396 29400 28
23521 29401 29402 28
23522 29401 29403 28
23523 29401 29404 28
23524 29401 29405 28
23525 29406 29407 28
23526 29406 29408 28
23527 29406 29409 28
23528 29406 29410 28
23529 29411 29412 28
23530 29411 29413 28
23531 29411 29414 28
23532 29411 29415 28
23533 29416 29417 28
23534 29416 29418 28
23535 29416 29419 28
23536 29416 29420 28
23537 29421 29422 28
23538 29421 29423 28
23539 29421 29424 28
23540 29421 29425 28
23541 29426 29427 28
23542 29426 29428 28
23543 29426 29429 28
23544 29426 29430 28
23545 29431 29432 28
23546 29431 29433 28
23547 29431 29434 28
23548 29431 29435 28
23549 29436 29437 28
23550 29436 29438 28
23551 29436 29439 28
23552 29436 29440 28
23553 29441 29442 28
23554 29441 29443 28
23555 29441 29444 28
23556 29441 29445 28
23557 29446 29447 28
23558 29446 29448 28
23559 29446 29449 28
23560 29446 29450 28
23561 29451 29452 28
23562 29451 29453 28
23563 29451 29454 28
23564 29451 29455 28
23565 29456 29457 28
23566 29456 29458 28
23567 29456 29459 28
23568 29456 29460 28
23569 29461 29462 28
23570 29461 29463 28
23571 29461 29464 28
23572 29461 29465 28
23573 29466 29467 28
23574 29466 29468 28
23575 29466 29469 28
23576 29466 29470 28
23577 29471 29472 28
23578 29471 29473 28
23579 29471 29474 28
23580 29471 29475 28
23581 29476 29477 28
23582 29476 29478 28
23583 29476 29479 28
23584 29476 29480 28
23585 29481 29482 28
23586 29481 29483 28
23587 29481 29484 28
23588 29481 29485 28
23589 29486 29487 28
23590 29486 29488 28
23591 29486 29489 28
23592 29486 29490 28
23593 29491 29492 28
23594 29491 29493 28
23595 29491 29494 28
23596 29491 29495 28
23597 29496 29497 28
23598 29496 29498 28
23599 29496 29499 28
23600 29496 29500 28
23601 29501 29502 28
23602 29501 29503 28
23603 29501 29504 28
23604 29501 29505 28
23605 29506 29507 28
23606 29506 29508 28
23607 29506 29509 28
23608 29506 29510 28
23609 29511 29512 28
23610 29511 29513 28
23611 29511 29514 28
23612 29511 29515 28
23613 29516 29517 28
23614 29516 29518 28
23615 29516 29519 28
23616 29516 29520 28
23617 29521 29522 28
23618 29521 29523 28
23619 29521 29524 28
23620 29521 29525 28
23621 29526 29527 28
23622 29526 29528 28
23623 29526 29529 28
23624 29526 29530 28
23625 29531 29532 28
23626 29531 29533 28
23627 29531 29534 28
23628 29531 29535 28
23629 29536 29537 28
23630 29536 29538 28
23631 29536 29539 28
23632 29536 29540 28
23633 29541 29542 28
23634 29541 29543 28
23635 29541 29544 28
23636 29541 29545 28
23637 29546 29547 28
23638 29546 29548 28
23639 29546 29549 28
23640 29546 29550 28
23641 29551 29552 28
23642 29551 29553 28
23643 29551 29554 28
23644 29551 29555 28
23645 29556 29557 28
23646 29556 29558 28
23647 29556 29559 28
23648 29556 29560 28
23649 29561 29562 28
23650 29561 29563 28
23651 29561 29564 28
23652 29561 29565 28
23653 29566 29567 28
23654 29566 29568 28
23655 29566 29569 28
23656 29566 29570 28
23657 29571 29572 28
23658 29571 29573 28
23659 29571 29574 28
23660 29571 29575 28
23661 29576 29577 28
23662 29576 29578 28
23663 29576 29579 28
23664 29576 29580 28
23665 29581 29582 28
23666 29581 29583 28
23667 29581 29584 28
23668 29581 29585 28
23669 29586 29587 28
23670 29586 29588 28
23671 29586 29589 28
23672 29586 29590 28
23673 29591 29592 28
23674 29591 29593 28
23675 29591 29594 28
23676 29591 29595 28
23677 29596 29597 28
23678 29596 29598 28
23679 29596 29599 28
23680 29596 29600 28
23681 29601 29602 28
23682 29601 29603 28
23683 29601 29604 28
23684 29601 29605 28
23685 29606 29607 28
23686 29606 29608 28
23687 29606 29609 28
23688 29606 29610 28
23689 29611 29612 28
23690 29611 29613 28
23691 29611 29614 28
23692 29611 29615 28
23693 29616 29617 28
23694 29616 29618 28
23695 29616 29619 28
23696 29616 29620 28
23697 29621 29622 28
23698 29621 29623 28
23699 29621 29624 28
23700 29621 29625 28
23701 29626 29627 28
23702 29626 29628 28
23703 29626 29629 28
23704 29626 29630 28
23705 29631 29632 28
23706 29631 29633 28
23707 29631 29634 28
23708 29631 29635 28
23709 29636 29637 28
23710 29636 29638 28
23711 29636 29639 28
23712 29636 29640 28
23713 29641 29642 28
23714 29641 29643 28
23715 29641 29644 28
23716 29641 29645 28
23717 29646 29647 28
23718 29646 29648 28
23719 29646 29649 28
23720 29646 29650 28
23721 29651 29652 28
23722 29651 29653 28
23723 29651 29654 28
23724 29651 29655 28
23725 29656 29657 28
23726 29656 29658 28
23727 29656 29659 28
23728 29656 29660 28
23729 29661 29662 28
23730 29661 29663 28
23731 29661 29664 28
23732 29661 29665 28
23733 29666 29667 28
23734 29666 29668 28
23735 29666 29669 28
23736 29666 29670 28
23737 29671 29672 28
23738 29671 29673 28
23739 29671 29674 28
23740 29671 29675 28
23741 29676 29677 28
23742 29676 29678 28
23743 29676 29679 28
23744 29676 29680 28
23745 29681 29682 28
23746 29681 29683 28
23747 29681 29684 28
23748 29681 29685 28
23749 29686 29687 28
23750 29686 29688 28
23751 29686 29689 28
23752 29686 29690 28
23753 29691 29692 28
23754 29691 29693 28
23755 29691 29694 28
23756 29691 29695 28
23757 29696 29697 28
23758 29696 29698 28
23759 29696 29699 28
23760 29696 29700 28
23761 29701 29702 28
23762 29701 29703 28
23763 29701 29704 28
23764 29701 29705 28
23765 29706 29707 28
23766 29706 29708 28
23767 29706 29709 28
23768 29706 29710 28
23769 29711 29712 28
23770 29711 29713 28
23771 29711 29714 28
23772 29711 29715 28
23773 29716 29717 28
23774 29716 29718 28
23775 29716 29719 28
23776 29716 29720 28
23777 29721 29722 28
23778 29721 29723 28
23779 29721 29724 28
23780 29721 29725 28
23781 29726 29727 28
23782 29726 29728 28
23783 29726 29729 28
23784 29726 29730 28
23785 29731 29732 28
23786 29731 29733 28
23787 29731 29734 28
23788 29731 29735 28
23789 29736 29737 28
23790 29736 29738 28
23791 29736 29739 28
23792 29736 29740 28
23793 29741 29742 28
23794 29741 29743 28
23795 29741 29744 28
23796 29741 29745 28
23797 29746 29747 28
23798 29746 29748 28
23799 29746 29749 28
23800 29746 29750 28
23801 29751 29752 28
23802 29751 29753 28
23803 29751 29754 28
23804 29751 29755 28
23805 29756 29757 28
23806 29756 29758 28
23807 29756 29759 28
23808 29756 29760 28
23809 29761 29762 28
23810 29761 29763 28
23811 29761 29764 28
23812 29761 29765 28
23813 29766 29767 28
23814 29766 29768 28
23815 29766 29769 28
23816 29766 29770 28
23817 29771 29772 28
23818 29771 29773 28
23819 29771 29774 28
23820 29771 29775 28
23821 29776 29777 28
23822 29776 29778 28
23823 29776 29779 28
23824 29776 29780 28
23825 29781 29782 28
23826 29781 29783 28
23827 29781 29784 28
23828 29781 29785 28
23829 29786 29787 28
23830 29786 29788 28
23831 29786 29789 28
23832 29786 29790 28
23833 29791 29792 28
23834 29791 29793 28
23835 29791 29794 28
23836 29791 29795 28
23837 29796 29797 28
23838 29796 29798 28
23839 29796 29799 28
23840 29796 29800 28
23841 29801 29802 28
23842 29801 29803 28
23843 29801 29804 28
23844 29801 29805 28
23845 29806 29807 28
23846 29806 29808 28
23847 29806 29809 28
23848 29806 29810 28
23849 29811 29812 28
23850 29811 29813 28
23851 29811 29814 28
23852 29811 29815 28
23853 29816 29817 28
23854 29816 29818 28
23855 29816 29819 28
23856 29816 29820 28
23857 29821 29822 28
23858 29821 29823 28
23859 29821 29824 28
23860 29821 29825 28
23861 29826 29827 28
23862 29826 29828 28
23863 29826 29829 28
23864 29826 29830 28
23865 29831 29832 28
23866 29831 29833 28
23867 29831 29834 28
23868 29831 29835 28
23869 29836 29837 28
23870 29836 29838 28
23871 29836 29839 28
23872 29836 29840 28
23873 29841 29842 28
23874 29841 29843 28
23875 29841 29844 28
23876 29841 29845 28
23877 29846 29847 28
23878 29846 29848 28
23879 29846 29849 28
23880 29846 29850 28
23881 29851 29852 28
23882 29851 29853 28
23883 29851 29854 28
23884 29851 29855 28
23885 29856 29857 28
23886 29856 29858 28
23887 29856 29859 28
23888 29856 29860 28
23889 29861 29862 28
23890 29861 29863 28
23891 29861 29864 28
23892 29861 29865 28
23893 29866 29867 28
23894 29866 29868 28
23895 29866 29869 28
23896 29866 29870 28
23897 29871 29872 28
23898 29871 29873 28
23899 29871 29874 28
23900 29871 29875 28
23901 29876 29877 28
23902 29876 29878 28
23903 29876 29879 28
23904 29876 29880 28
23905 29881 29882 28
23906 29881 29883 28
23907 29881 29884 28
23908 29881 29885 28
23909 29886 29887 28
23910 29886 29888 28
23911 29886 29889 28
23912 29886 29890 28
23913 29891 29892 28
23914 29891 29893 28
23915 29891 29894 28
23916 29891 29895 28
23917 29896 29897 28
23918 29896 29898 28
23919 29896 29899 28
23920 29896 29900 28
23921 29901 29902 28
23922 29901 29903 28
23923 29901 29904 28
23924 29901 29905 28
23925 29906 29907 28
23926 29906 29908 28
23927 29906 29909 28
23928 29906 29910 28
23929 29911 29912 28
23930 29911 29913 28
23931 29911 29914 28
23932 29911 29915 28
23933 29916 29917 28
23934 29916 29918 28
23935 29916 29919 28
23936 29916 29920 28
23937 29921 29922 28
23938 29921 29923 28
23939 29921 29924 28
23940 29921 29925 28
23941 29926 29927 28
23942 29926 29928 28
23943 29926 29929 28
23944 29926 29930 28
23945 29931 29932 28
23946 29931 29933 28
23947 29931 29934 28
23948 29931 29935 28
23949 29936 29937 28
23950 29936 29938 28
23951 29936 29939 28
23952 29936 29940 28
23953 29941 29942 28
23954 29941 29943 28
23955 29941 29944 28
23956 29941 29945 28
23957 29946 29947 28
23958 29946 29948 28
23959 29946 29949 28
23960 29946 29950 28
23961 29951 29952 28
23962 29951 29953 28
23963 29951 29954 28
23964 29951 29955 28
23965 29956 29957 28
23966 29956 29958 28
23967 29956 29959 28
23968 29956 29960 28
23969 29961 29962 28
23970 29961 29963 28
23971 29961 29964 28
23972 29961 29965 28
23973 29966 29967 28
23974 29966 29968 28
23975 29966 29969 28
23976 29966 29970 28
23977 29971 29972 28
23978 29971 29973 28
23979 29971 29974 28
23980 29971 29975 28
23981 29976 29977 28
23982 29976 29978 28
23983 29976 29979 28
23984 29976 29980 28
23985 29981 29982 28
23986 29981 29983 28
23987 29981 29984 28
23988 29981 29985 28
23989 29986 29987 28
23990 29986 29988 28
23991 29986 29989 28
23992 29986 29990 28
23993 29991 29992 28
23994 29991 29993 28
23995 29991 29994 28
23996 29991 29995 28
23997 29996 29997 28
23998 29996 29998 28
23999 29996 29999 28
24000 29996 30000 28
24001 30001 30002 28
24002 30001 30003 28
24003 30001 30004 28
24004 30001 30005 28
24005 30006 30007 28
24006 30006 30008 28
24007 30006 30009 28
24008 30006 30010 28
24009 30011 30012 28
24010 30011 30013 28
24011 30011 30014 28
24012 30011 30015 28
24013 30016 30017 28
24014 30016 30018 28
24015 30016 30019 28
24016 30016 30020 28
24017 30021 30022 28
24018 30021 30023 28
24019 30021 30024 28
24020 30021 30025 28
24021 30026 30027 28
24022 30026 30028 28
24023 30026 30029 28
24024 30026 30030 28
24025 30031 30032 28
24026 30031 30033 28
24027 30031 30034 28
24028 30031 30035 28
24029 30036 30037 28
24030 30036 30038 28
24031 30036 30039 28
24032 30036 30040 28
24033 30041 30042 28
24034 30041 30043 28
24035 30041 30044 28
24036 30041 30045 28
24037 30046 30047 28
24038 30046 30048 28
24039 30046 30049 28
24040 30046 30050 28
24041 30051 30052 28
24042 30051 30053 28
24043 30051 30054 28
24044 30051 30055 28
24045 30056 30057 28
24046 30056 30058 28
24047 30056 30059 28
24048 30056 30060 28
24049 30061 30062 28
24050 30061 30063 28
24051 30061 30064 28
24052 30061 30065 28
24053 30066 30067 28
24054 30066 30068 28
24055 30066 30069 28
24056 30066 30070 28
24057 30071 30072 28
24058 30071 30073 28
24059 30071 30074 28
24060 30071 30075 28
24061 30076 30077 28
24062 30076 30078 28
24063 30076 30079 28
24064 30076 30080 28
24065 30081 30082 28
24066 30081 30083 28
24067 30081 30084 28
24068 30081 30085 28
24069 30086 30087 28
24070 30086 30088 28
24071 30086 30089 28
24072 30086 30090 28
24073 30091 30092 28
24074 30091 30093 28
24075 30091 30094 28
24076 30091 30095 28
24077 30096 30097 28
24078 30096 30098 28
24079 30096 30099 28
24080 30096 30100 28
24081 30101 30102 28
24082 30101 30103 28
24083 30101 30104 28
24084 30101 30105 28
24085 30106 30107 28
24086 30106 30108 28
24087 30106 30109 28
24088 30106 30110 28
24089 30111 30112 28
24090 30111 30113 28
24091 30111 30114 28
24092 30111 30115 28
24093 30116 30117 28
24094 30116 30118 28
24095 30116 30119 28
24096 30116 30120 28
24097 30121 30122 28
24098 30121 30123 28
24099 30121 30124 28
24100 30121 30125 28
24101 30126 30127 28
24102 30126 30128 28
24103 30126 30129 28
24104 30126 30130 28
24105 30131 30132 28
24106 30131 30133 28
24107 30131 30134 28
24108 30131 30135 28
24109 30136 30137 28
24110 30136 30138 28
24111 30136 30139 28
24112 30136 30140 28
24113 30141 30142 28
24114 30141 30143 28
24115 30141 30144 28
24116 30141 30145 28
24117 30146 30147 28
24118 30146 30148 28
24119 30146 30149 28
24120 30146 30150 28
24121 30151 30152 28
24122 30151 30153 28
24123 30151 30154 28
24124 30151 30155 28
24125 30156 30157 28
24126 30156 30158 28
24127 30156 30159 28
24128 30156 30160 28
24129 30161 30162 28
24130 30161 30163 28
24131 30161 30164 28
24132 30161 30165 28
24133 30166 30167 28
24134 30166 30168 28
24135 30166 30169 28
24136 30166 30170 28
24137 30171 30172 28
24138 30171 30173 28
24139 30171 30174 28
24140 30171 30175 28
24141 30176 30177 28
24142 30176 30178 28
24143 30176 30179 28
24144 30176 30180 28
24145 30181 30182 28
24146 30181 30183 28
24147 30181 30184 28
24148 30181 30185 28
24149 30186 30187 28
24150 30186 30188 28
24151 30186 30189 28
24152 30186 30190 28
24153 30191 30192 28
24154 30191 30193 28
24155 30191 30194 28
24156 30191 30195 28
24157 30196 30197 28
24158 30196 30198 28
24159 30196 30199 28
24160 30196 30200 28
24161 30201 30202 28
24162 30201 30203 28
24163 30201 30204 28
24164 30201 30205 28
24165 30206 30207 28
24166 30206 30208 28
24167 30206 30209 28
24168 30206 30210 28
24169 30211 30212 28
24170 30211 30213 28
24171 30211 30214 28
24172 30211 30215 28
24173 30216 30217 28
24174 30216 30218 28
24175 30216 30219 28
24176 30216 30220 28
24177 30221 30222 28
24178 30221 30223 28
24179 30221 30224 28
24180 30221 30225 28
24181 30226 30227 28
24182 30226 30228 28
24183 30226 30229 28
24184 30226 30230 28
24185 30231 30232 28
24186 30231 30233 28
24187 30231 30234 28
24188 30231 30235 28
24189 30236 30237 28
24190 30236 30238 28
24191 30236 30239 28
24192 30236 30240 28
24193 30241 30242 28
24194 30241 30243 28
24195 30241 30244 28
24196 30241 30245 28
24197 30246 30247 28
24198 30246 30248 28
24199 30246 30249 28
24200 30246 30250 28
24201 30251 30252 28
24202 30251 30253 28
24203 30251 30254 28
24204 30251 30255 28
24205 30256 30257 28
24206 30256 30258 28
24207 30256 30259 28
24208 30256 30260 28
24209 30261 30262 28
24210 30261 30263 28
24211 30261 30264 28
24212 30261 30265 28
24213 30266 30267 28
24214 30266 30268 28
24215 30266 30269 28
24216 30266 30270 28
24217 30271 30272 28
24218 30271 30273 28
24219 30271 30274 28
24220 30271 30275 28
24221 30276 30277 28
24222 30276 30278 28
24223 30276 30279 28
24224 30276 30280 28
24225 30281 30282 28
24226 30281 30283 28
24227 30281 30284 28
24228 30281 30285 28
24229 30286 30287 28
24230 30286 30288 28
24231 30286 30289 28
24232 30286 30290 28
24233 30291 30292 28
24234 30291 30293 28
24235 30291 30294 28
24236 30291 30295 28
24237 30296 30297 28
24238 30296 30298 28
24239 30296 30299 28
24240 30296 30300 28
24241 30301 30302 28
24242 30301 30303 28
24243 30301 30304 28
24244 30301 30305 28
24245 30306 30307 28
24246 30306 30308 28
24247 30306 30309 28
24248 30306 30310 28
24249 30311 30312 28
24250 30311 30313 28
24251 30311 30314 28
24252 30311 30315 28
24253 30316 30317 28
24254 30316 30318 28
24255 30316 30319 28
24256 30316 30320 28
24257 30321 30322 28
24258 30321 30323 28
24259 30321 30324 28
24260 30321 30325 28
24261 30326 30327 28
24262 30326 30328 28
24263 30326 30329 28
24264 30326 30330 28
24265 30331 30332 28
24266 30331 30333 28
24267 30331 30334 28
24268 30331 30335 28
24269 30336 30337 28
24270 30336 30338 28
24271 30336 30339 28
24272 30336 30340 28
24273 30341 30342 28
24274 30341 30343 28
24275 30341 30344 28
24276 30341 30345 28
24277 30346 30347 28
24278 30346 30348 28
24279 30346 30349 28
24280 30346 30350 28
24281 30351 30352 28
24282 30351 30353 28
24283 30351 30354 28
24284 30351 30355 28
24285 30356 30357 28
24286 30356 30358 28
24287 30356 30359 28
24288 30356 30360 28
24289 30361 30362 28
24290 30361 30363 28
24291 30361 30364 28
24292 30361 30365 28
24293 30366 30367 28
24294 30366 30368 28
24295 30366 30369 28
24296 30366 30370 28
24297 30371 30372 28
24298 30371 30373 28
24299 30371 30374 28
24300 30371 30375 28
24301 30376 30377 28
24302 30376 30378 28
24303 30376 30379 28
24304 30376 30380 28
24305 30381 30382 28
24306 30381 30383 28
24307 30381 30384 28
24308 30381 30385 28
24309 30386 30387 28
24310 30386 30388 28
24311 30386 30389 28
24312 30386 30390 28
24313 30391 30392 28
24314 30391 30393 28
24315 30391 30394 28
24316 30391 30395 28
24317 30396 30397 28
24318 30396 30398 28
24319 30396 30399 28
24320 30396 30400 28
24321 30401 30402 28
24322 30401 30403 28
24323 30401 30404 28
24324 30401 30405 28
24325 30406 30407 28
24326 30406 30408 28
24327 30406 30409 28
24328 30406 30410 28
24329 30411 30412 28
24330 30411 30413 28
24331 30411 30414 28
24332 30411 30415 28
24333 30416 30417 28
24334 30416 30418 28
24335 30416 30419 28
24336 30416 30420 28
24337 30421 30422 28
24338 30421 30423 28
24339 30421 30424 28
24340 30421 30425 28
24341 30426 30427 28
24342 30426 30428 28
24343 30426 30429 28
24344 30426 30430 28
24345 30431 30432 28
24346 30431 30433 28
24347 30431 30434 28
24348 30431 30435 28
24349 30436 30437 28
24350 30436 30438 28
24351 30436 30439 28
24352 30436 30440 28
24353 30441 30442 28
24354 30441 30443 28
24355 30441 30444 28
24356 30441 30445 28
24357 30446 30447 28
24358 30446 30448 28
24359 30446 30449 28
24360 30446 30450 28
24361 30451 30452 28
24362 30451 30453 28
24363 30451 30454 28
24364 30451 30455 28
24365 30456 30457 28
24366 30456 30458 28
24367 30456 30459 28
24368 30456 30460 28
24369 30461 30462 28
24370 30461 30463 28
24371 30461 30464 28
24372 30461 30465 28
24373 30466 30467 28
24374 30466 30468 28
24375 30466 30469 28
24376 30466 30470 28
24377 30471 30472 28
24378 30471 30473 28
24379 30471 30474 28
24380 30471 30475 28
24381 30476 30477 28
24382 30476 30478 28
24383 30476 30479 28
24384 30476 30480 28
24385 30481 30482 28
24386 30481 30483 28
24387 30481 30484 28
24388 30481 30485 28
24389 30486 30487 28
24390 30486 30488 28
24391 30486 30489 28
24392 30486 30490 28
24393 30491 30492 28
24394 30491 30493 28
24395 30491 30494 28
24396 30491 30495 28
24397 30496 30497 28
24398 30496 30498 28
24399 30496 30499 28
24400 30496 30500 28
24401 30501 30502 28
24402 30501 30503 28
24403 30501 30504 28
24404 30501 30505 28
24405 30506 30507 28
24406 30506 30508 28
24407 30506 30509 28
24408 30506 30510 28
24409 30511 30512 28
24410 30511 30513 28
24411 30511 30514 28
24412 30511 30515 28
24413 30516 30517 28
24414 30516 30518 28
24415 30516 30519 28
24416 30516 30520 28
24417 30521 30522 28
24418 30521 30523 28
24419 30521 30524 28
24420 30521 30525 28
24421 30526 30527 28
24422 30526 30528 28
24423 30526 30529 28
24424 30526 30530 28
24425 30531 30532 28
24426 30531 30533 28
24427 30531 30534 28
24428 30531 30535 28
24429 30536 30537 28
24430 30536 30538 28
24431 30536 30539 28
24432 30536 30540 28
24433 30541 30542 28
24434 30541 30543 28
24435 30541 30544 28
24436 30541 30545 28
24437 30546 30547 28
24438 30546 30548 28
24439 30546 30549 28
24440 30546 30550 28
24441 30551 30552 28
24442 30551 30553 28
24443 30551 30554 28
24444 30551 30555 28
24445 30556 30557 28
24446 30556 30558 28
24447 30556 30559 28
24448 30556 30560 28
24449 30561 30562 28
24450 30561 30563 28
24451 30561 30564 28
24452 30561 30565 28
24453 30566 30567 28
24454 30566 30568 28
24455 30566 30569 28
24456 30566 30570 28
24457 30571 30572 28
24458 30571 30573 28
24459 30571 30574 28
24460 30571 30575 28
24461 30576 30577 28
24462 30576 30578 28
24463 30576 30579 28
24464 30576 30580 28
24465 30581 30582 28
24466 30581 30583 28
24467 30581 30584 28
24468 30581 30585 28
24469 30586 30587 28
24470 30586 30588 28
24471 30586 30589 28
24472 30586 30590 28
24473 30591 30592 28
24474 30591 30593 28
24475 30591 30594 28
24476 30591 30595 28
24477 30596 30597 28
24478 30596 30598 28
24479 30596 30599 28
24480 30596 30600 28
24481 30601 30602 28
24482 30601 30603 28
24483 30601 30604 28
24484 30601 30605 28
24485 30606 30607 28
24486 30606 30608 28
24487 30606 30609 28
24488 30606 30610 28
24489 30611 30612 28
24490 30611 30613 28
24491 30611 30614 28
24492 30611 30615 28
24493 30616 30617 28
24494 30616 30618 28
24495 30616 30619 28
24496 30616 30620 28
24497 30621 30622 28
24498 30621 30623 28
24499 30621 30624 28
24500 30621 30625 28
24501 30626 30627 28
24502 30626 30628 28
24503 30626 30629 28
24504 30626 30630 28
24505 30631 30632 28
24506 30631 30633 28
24507 30631 30634 28
24508 30631 30635 28
24509 30636 30637 28
24510 30636 30638 28
24511 30636 30639 28
24512 30636 30640 28
24513 30641 30642 28
24514 30641 30643 28
24515 30641 30644 28
24516 30641 30645 28
24517 30646 30647 28
24518 30646 30648 28
24519 30646 30649 28
24520 30646 30650 28
24521 30651 30652 28
24522 30651 30653 28
24523 30651 30654 28
24524 30651 30655 28
24525 30656 30657 28
24526 30656 30658 28
24527 30656 30659 28
24528 30656 30660 28
24529 30661 30662 28
24530 30661 30663 28
24531 30661 30664 28
24532 30661 30665 28
24533 30666 30667 28
24534 30666 30668 28
24535 30666 30669 28
24536 30666 30670 28
24537 30671 30672 28
24538 30671 30673 28
24539 30671 30674 28
24540 30671 30675 28
24541 30676 30677 28
24542 30676 30678 28
24543 30676 30679 28
24544 30676 30680 28
24545 30681 30682 28
24546 30681 30683 28
24547 30681 30684 28
24548 30681 30685 28
24549 30686 30687 28
24550 30686 30688 28
24551 30686 30689 28
24552 30686 30690 28
24553 30691 30692 28
24554 30691 30693 28
24555 30691 30694 28
24556 30691 30695 28
24557 30696 30697 28
24558 30696 30698 28
24559 30696 30699 28
24560 30696 30700 28
24561 30701 30702 28
24562 30701 30703 28
24563 30701 30704 28
24564 30701 30705 28
24565 30706 30707 28
24566 30706 30708 28
24567 30706 30709 28
24568 30706 30710 28
24569 30711 30712 28
24570 30711 30713 28
24571 30711 30714 28
24572 30711 30715 28
24573 30716 30717 28
24574 30716 30718 28
24575 30716 30719 28
24576 30716 30720 28
24577 30721 30722 28
24578 30721 30723 28
24579 30721 30724 28
24580 30721 30725 28
24581 30726 30727 28
24582 30726 30728 28
24583 30726 30729 28
24584 30726 30730 28
24585 30731 30732 28
24586 30731 30733 28
24587 30731 30734 28
24588 30731 30735 28
24589 30736 30737 28
24590 30736 30738 28
24591 30736 30739 28
24592 30736 30740 28
24593 30741 30742 28
24594 30741 30743 28
24595 30741 30744 28
24596 30741 30745 28
24597 30746 30747 28
24598 30746 30748 28
24599 30746 30749 28
24600 30746 30750 28
24601 30751 30752 28
24602 30751 30753 28
24603 30751 30754 28
24604 30751 30755 28
24605 30756 30757 28
24606 30756 30758 28
24607 30756 30759 28
24608 30756 30760 28
24609 30761 30762 28
24610 30761 30763 28
24611 30761 30764 28
24612 30761 30765 28
24613 30766 30767 28
24614 30766 30768 28
24615 30766 30769 28
24616 30766 30770 28
24617 30771 30772 28
24618 30771 30773 28
24619 30771 30774 28
24620 30771 30775 28
24621 30776 30777 28
24622 30776 30778 28
24623 30776 30779 28
24624 30776 30780 28
24625 30781 30782 28
24626 30781 30783 28
24627 30781 30784 28
24628 30781 30785 28
24629 30786 30787 28
24630 30786 30788 28
24631 30786 30789 28
24632 30786 30790 28
24633 30791 30792 28
24634 30791 30793 28
24635 30791 30794 28
24636 30791 30795 28
24637 30796 30797 28
24638 30796 30798 28
24639 30796 30799 28
24640 30796 30800 28
24641 30801 30802 28
24642 30801 30803 28
24643 30801 30804 28
24644 30801 30805 28
24645 30806 30807 28
24646 30806 30808 28
24647 30806 30809 28
24648 30806 30810 28
24649 30811 30812 28
24650 30811 30813 28
24651 30811 30814 28
24652 30811 30815 28
24653 30816 30817 28
24654 30816 30818 28
24655 30816 30819 28
24656 30816 30820 28
24657 30821 30822 28
24658 30821 30823 28
24659 30821 30824 28
24660 30821 30825 28
24661 30826 30827 28
24662 30826 30828 28
24663 30826 30829 28
24664 30826 30830 28
24665 30831 30832 28
24666 30831 30833 28
24667 30831 30834 28
24668 30831 30835 28
24669 30836 30837 28
24670 30836 30838 28
24671 30836 30839 28
24672 30836 30840 28
24673 30841 30842 28
24674 30841 30843 28
24675 30841 30844 28
24676 30841 30845 28
24677 30846 30847 28
24678 30846 30848 28
24679 30846 30849 28
24680 30846 30850 28
24681 30851 30852 28
24682 30851 30853 28
24683 30851 30854 28
24684 30851 30855 28
24685 30856 30857 28
24686 30856 30858 28
24687 30856 30859 28
24688 30856 30860 28
24689 30861 30862 28
24690 30861 30863 28
24691 30861 30864 28
24692 30861 30865 28
24693 30866 30867 28
24694 30866 30868 28
24695 30866 30869 28
24696 30866 30870 28
24697 30871 30872 28
24698 30871 30873 28
24699 30871 30874 28
24700 30871 30875 28
24701 30876 30877 28
24702 30876 30878 28
24703 30876 30879 28
24704 30876 30880 28
24705 30881 30882 28
24706 30881 30883 28
24707 30881 30884 28
24708 30881 30885 28
24709 30886 30887 28
24710 30886 30888 28
24711 30886 30889 28
24712 30886 30890 28
24713 30891 30892 28
24714 30891 30893 28
24715 30891 30894 28
24716 30891 30895 28
24717 30896 30897 28
24718 30896 30898 28
24719 30896 30899 28
24720 30896 30900 28
24721 30901 30902 28
24722 30901 30903 28
24723 30901 30904 28
24724 30901 30905 28
24725 30906 30907 28
24726 30906 30908 28
24727 30906 30909 28
24728 30906 30910 28
24729 30911 30912 28
24730 30911 30913 28
24731 30911 30914 28
24732 30911 30915 28
24733 30916 30917 28
24734 30916 30918 28
24735 30916 30919 28
24736 30916 30920 28
24737 30921 30922 28
24738 30921 30923 28
24739 30921 30924 28
24740 30921 30925 28
24741 30926 30927 28
24742 30926 30928 28
24743 30926 30929 28
24744 30926 30930 28
24745 30931 30932 28
24746 30931 30933 28
24747 30931 30934 28
24748 30931 30935 28
24749 30936 30937 28
24750 30936 30938 28
24751 30936 30939 28
24752 30936 30940 28
24753 30941 30942 28
24754 30941 30943 28
24755 30941 30944 28
24756 30941 30945 28
24757 30946 30947 28
24758 30946 30948 28
24759 30946 30949 28
24760 30946 30950 28
24761 30951 30952 28
24762 30951 30953 28
24763 30951 30954 28
24764 30951 30955 28
24765 30956 30957 28
24766 30956 30958 28
24767 30956 30959 28
24768 30956 30960 28
24769 30961 30962 28
24770 30961 30963 28
24771 30961 30964 28
24772 30961 30965 28
24773 30966 30967 28
24774 30966 30968 28
24775 30966 30969 28
24776 30966 30970 28
24777 30971 30972 28
24778 30971 30973 28
24779 30971 30974 28
24780 30971 30975 28
24781 30976 30977 28
24782 30976 30978 28
24783 30976 30979 28
24784 30976 30980 28
24785 30981 30982 28
24786 30981 30983 28
24787 30981 30984 28
24788 30981 30985 28
24789 30986 30987 28
24790 30986 30988 28
24791 30986 30989 28
24792 30986 30990 28
24793 30991 30992 28
24794 30991 30993 28
24795 30991 30994 28
24796 30991 30995 28
24797 30996 30997 28
24798 30996 30998 28
24799 30996 30999 28
24800 30996 31000 28
24801 31001 31002 28
24802 31001 31003 28
24803 31001 31004 28
24804 31001 31005 28
24805 31006 31007 28
24806 31006 31008 28
24807 31006 31009 28
24808 31006 31010 28
24809 31011 31012 28
24810 31011 31013 28
24811 31011 31014 28
24812 31011 31015 28
24813 31016 31017 28
24814 31016 31018 28
24815 31016 31019 28
24816 31016 31020 28
24817 31021 31022 28
24818 31021 31023 28
24819 31021 31024 28
24820 31021 31025 28
24821 31026 31027 28
24822 31026 31028 28
24823 31026 31029 28
24824 31026 31030 28
24825 31031 31032 28
24826 31031 31033 28
24827 31031 31034 28
24828 31031 31035 28
24829 31036 31037 28
24830 31036 31038 28
24831 31036 31039 28
24832 31036 31040 28
24833 31041 31042 28
24834 31041 31043 28
24835 31041 31044 28
24836 31041 31045 28
24837 31046 31047 28
24838 31046 31048 28
24839 31046 31049 28
24840 31046 31050 28
24841 31051 31052 28
24842 31051 31053 28
24843 31051 31054 28
24844 31051 31055 28
24845 31056 31057 28
24846 31056 31058 28
24847 31056 31059 28
24848 31056 31060 28
24849 31061 31062 28
24850 31061 31063 28
24851 31061 31064 28
24852 31061 31065 28
24853 31066 31067 28
24854 31066 31068 28
24855 31066 31069 28
24856 31066 31070 28
24857 31071 31072 28
24858 31071 31073 28
24859 31071 31074 28
24860 31071 31075 28
24861 31076 31077 28
24862 31076 31078 28
24863 31076 31079 28
24864 31076 31080 28
24865 31081 31082 28
24866 31081 31083 28
24867 31081 31084 28
24868 31081 31085 28
24869 31086 31087 28
24870 31086 31088 28
24871 31086 31089 28
24872 31086 31090 28
24873 31091 31092 28
24874 31091 31093 28
24875 31091 31094 28
24876 31091 31095 28
24877 31096 31097 28
24878 31096 31098 28
24879 31096 31099 28
24880 31096 31100 28
24881 31101 31102 28
24882 31101 31103 28
24883 31101 31104 28
24884 31101 31105 28
24885 31106 31107 28
24886 31106 31108 28
24887 31106 31109 28
24888 31106 31110 28
24889 31111 31112 28
24890 31111 31113 28
24891 31111 31114 28
24892 31111 31115 28
24893 31116 31117 28
24894 31116 31118 28
24895 31116 31119 28
24896 31116 31120 28
24897 31121 31122 28
24898 31121 31123 28
24899 31121 31124 28
24900 31121 31125 28
24901 31126 31127 28
24902 31126 31128 28
24903 31126 31129 28
24904 31126 31130 28
24905 31131 31132 28
24906 31131 31133 28
24907 31131 31134 28
24908 31131 31135 28
24909 31136 31137 28
24910 31136 31138 28
24911 31136 31139 28
24912 31136 31140 28
24913 31141 31142 28
24914 31141 31143 28
24915 31141 31144 28
24916 31141 31145 28
24917 31146 31147 28
24918 31146 31148 28
24919 31146 31149 28
24920 31146 31150 28
24921 31151 31152 28
24922 31151 31153 28
24923 31151 31154 28
24924 31151 31155 28
24925 31156 31157 28
24926 31156 31158 28
24927 31156 31159 28
24928 31156 31160 28
24929 31161 31162 28
24930 31161 31163 28
24931 31161 31164 28
24932 31161 31165 28
24933 31166 31167 28
24934 31166 31168 28
24935 31166 31169 28
24936 31166 31170 28
24937 31171 31172 28
24938 31171 31173 28
24939 31171 31174 28
24940 31171 31175 28
24941 31176 31177 28
24942 31176 31178 28
24943 31176 31179 28
24944 31176 31180 28
24945 31181 31182 28
24946 31181 31183 28
24947 31181 31184 28
24948 31181 31185 28
24949 31186 31187 28
24950 31186 31188 28
24951 31186 31189 28
24952 31186 31190 28
24953 31191 31192 28
24954 31191 31193 28
24955 31191 31194 28
24956 31191 31195 28
24957 31196 31197 28
24958 31196 31198 28
24959 31196 31199 28
24960 31196 31200 28
24961 31201 31202 28
24962 31201 31203 28
24963 31201 31204 28
24964 31201 31205 28
24965 31206 31207 28
24966 31206 31208 28
24967 31206 31209 28
24968 31206 31210 28
24969 31211 31212 28
24970 31211 31213 28
24971 31211 31214 28
24972 31211 31215 28
24973 31216 31217 28
24974 31216 31218 28
24975 31216 31219 28
24976 31216 31220 28
24977 31221 31222 28
24978 31221 31223 28
24979 31221 31224 28
24980 31221 31225 28
24981 31226 31227 28
24982 31226 31228 28
24983 31226 31229 28
24984 31226 31230 28
24985 31231 31232 28
24986 31231 31233 28
24987 31231 31234 28
24988 31231 31235 28
24989 31236 31237 28
24990 31236 31238 28
24991 31236 31239 28
24992 31236 31240 28
24993 31241 31242 28
24994 31241 31243 28
24995 31241 31244 28
24996 31241 31245 28
24997 31246 31247 28
24998 31246 31248 28
24999 31246 31249 28
25000 31246 31250 28
25001 31251 31252 28
25002 31251 31253 28
25003 31251 31254 28
25004 31251 31255 28
25005 31256 31257 28
25006 31256 31258 28
25007 31256 31259 28
25008 31256 31260 28
25009 31261 31262 28
25010 31261 31263 28
25011 31261 31264 28
25012 31261 31265 28
25013 31266 31267 28
25014 31266 31268 28
25015 31266 31269 28
25016 31266 31270 28
25017 31271 31272 28
25018 31271 31273 28
25019 31271 31274 28
25020 31271 31275 28
25021 31276 31277 28
25022 31276 31278 28
25023 31276 31279 28
25024 31276 31280 28
25025 31281 31282 28
25026 31281 31283 28
25027 31281 31284 28
25028 31281 31285 28
25029 31286 31287 28
25030 31286 31288 28
25031 31286 31289 28
25032 31286 31290 28
25033 31291 31292 28
25034 31291 31293 28
25035 31291 31294 28
25036 31291 31295 28
25037 31296 31297 28
25038 31296 31298 28
25039 31296 31299 28
25040 31296 31300 28
25041 31301 31302 28
25042 31301 31303 28
25043 31301 31304 28
25044 31301 31305 28
25045 31306 31307 28
25046 31306 31308 28
25047 31306 31309 28
25048 31306 31310 28
25049 31311 31312 28
25050 31311 31313 28
25051 31311 31314 28
25052 31311 31315 28
25053 31316 31317 28
25054 31316 31318 28
25055 31316 31319 28
25056 31316 31320 28
25057 31321 31322 28
25058 31321 31323 28
25059 31321 31324 28
25060 31321 31325 28
25061 31326 31327 28
25062 31326 31328 28
25063 31326 31329 28
25064 31326 31330 28
25065 31331 31332 28
25066 31331 31333 28
25067 31331 31334 28
25068 31331 31335 28
25069 31336 31337 28
25070 31336 31338 28
25071 31336 31339 28
25072 31336 31340 28
25073 31341 31342 28
25074 31341 31343 28
25075 31341 31344 28
25076 31341 31345 28
25077 31346 31347 28
25078 31346 31348 28
25079 31346 31349 28
25080 31346 31350 28
25081 31351 31352 28
25082 31351 31353 28
25083 31351 31354 28
25084 31351 31355 28
25085 31356 31357 28
25086 31356 31358 28
25087 31356 31359 28
25088 31356 31360 28
25089 31361 31362 28
25090 31361 31363 28
25091 31361 31364 28
25092 31361 31365 28
25093 31366 31367 28
25094 31366 31368 28
25095 31366 31369 28
25096 31366 31370 28
25097 31371 31372 28
25098 31371 31373 28
25099 31371 31374 28
25100 31371 31375 28
25101 31376 31377 28
25102 31376 31378 28
25103 31376 31379 28
25104 31376 31380 28
25105 31381 31382 28
25106 31381 31383 28
25107 31381 31384 28
25108 31381 31385 28
25109 31386 31387 28
25110 31386 31388 28
25111 31386 31389 28
25112 31386 31390 28
25113 31391 31392 28
25114 31391 31393 28
25115 31391 31394 28
25116 31391 31395 28
25117 31396 31397 28
25118 31396 31398 28
25119 31396 31399 28
25120 31396 31400 28
25121 31401 31402 28
25122 31401 31403 28
25123 31401 31404 28
25124 31401 31405 28
25125 31406 31407 28
25126 31406 31408 28
25127 31406 31409 28
25128 31406 31410 28
25129 31411 31412 28
25130 31411 31413 28
25131 31411 31414 28
25132 31411 31415 28
25133 31416 31417 28
25134 31416 31418 28
25135 31416 31419 28
25136 31416 31420 28
25137 31421 31422 28
25138 31421 31423 28
25139 31421 31424 28
25140 31421 31425 28
25141 31426 31427 28
25142 31426 31428 28
25143 31426 31429 28
25144 31426 31430 28
25145 31431 31432 28
25146 31431 31433 28
25147 31431 31434 28
25148 31431 31435 28
25149 31436 31437 28
25150 31436 31438 28
25151 31436 31439 28
25152 31436 31440 28
25153 31441 31442 28
25154 31441 31443 28
25155 31441 31444 28
25156 31441 31445 28
25157 31446 31447 28
25158 31446 31448 28
25159 31446 31449 28
25160 31446 31450 28
25161 31451 31452 28
25162 31451 31453 28
25163 31451 31454 28
25164 31451 31455 28
25165 31456 31457 28
25166 31456 31458 28
25167 31456 31459 28
25168 31456 31460 28
25169 31461 31462 28
25170 31461 31463 28
25171 31461 31464 28
25172 31461 31465 28
25173 31466 31467 28
25174 31466 31468 28
25175 31466 31469 28
25176 31466 31470 28
25177 31471 31472 28
25178 31471 31473 28
25179 31471 31474 28
25180 31471 31475 28
25181 31476 31477 28
25182 31476 31478 28
25183 31476 31479 28
25184 31476 31480 28
25185 31481 31482 28
25186 31481 31483 28
25187 31481 31484 28
25188 31481 31485 28
25189 31486 31487 28
25190 31486 31488 28
25191 31486 31489 28
25192 31486 31490 28
25193 31491 31492 28
25194 31491 31493 28
25195 31491 31494 28
25196 31491 31495 28
25197 31496 31497 28
25198 31496 31498 28
25199 31496 31499 28
25200 31496 31500 28
25201 31501 31502 28
25202 31501 31503 28
25203 31501 31504 28
25204 31501 31505 28
25205 31506 31507 28
25206 31506 31508 28
25207 31506 31509 28
25208 31506 31510 28
25209 31511 31512 28
25210 31511 31513 28
25211 31511 31514 28
25212 31511 31515 28
25213 31516 31517 28
25214 31516 31518 28
25215 31516 31519 28
25216 31516 31520 28
25217 31521 31522 28
25218 31521 31523 28
25219 31521 31524 28
25220 31521 31525 28
25221 31526 31527 28
25222 31526 31528 28
25223 31526 31529 28
25224 31526 31530 28
25225 31531 31532 28
25226 31531 31533 28
25227 31531 31534 28
25228 31531 31535 28
25229 31536 31537 28
25230 31536 31538 28
25231 31536 31539 28
25232 31536 31540 28
25233 31541 31542 28
25234 31541 31543 28
25235 31541 31544 28
25236 31541 31545 28
25237 31546 31547 28
25238 31546 31548 28
25239 31546 31549 28
25240 31546 31550 28
25241 31551 31552 28
25242 31551 31553 28
25243 31551 31554 28
25244 31551 31555 28
25245 31556 31557 28
25246 31556 31558 28
25247 31556 31559 28
25248 31556 31560 28
25249 31561 31562 28
25250 31561 31563 28
25251 31561 31564 28
25252 31561 31565 28
25253 31566 31567 28
25254 31566 31568 28
25255 31566 31569 28
25256 31566 31570 28
25257 31571 31572 28
25258 31571 31573 28
25259 31571 31574 28
25260 31571 31575 28
25261 31576 31577 28
25262 31576 31578 28
25263 31576 31579 28
25264 31576 31580 28
25265 31581 31582 28
25266 31581 31583 28
25267 31581 31584 28
25268 31581 31585 28
25269 31586 31587 28
25270 31586 31588 28
25271 31586 31589 28
25272 31586 31590 28
25273 31591 31592 28
25274 31591 31593 28
25275 31591 31594 28
25276 31591 31595 28
25277 31596 31597 28
25278 31596 31598 28
25279 31596 31599 28
25280 31596 31600 28
25281 31601 31602 28
25282 31601 31603 28
25283 31601 31604 28
25284 31601 31605 28
25285 31606 31607 28
25286 31606 31608 28
25287 31606 31609 28
25288 31606 31610 28
25289 31611 31612 28
25290 31611 31613 28
25291 31611 31614 28
25292 31611 31615 28
25293 31616 31617 28
25294 31616 31618 28
25295 31616 31619 28
25296 31616 31620 28
25297 31621 31622 28
25298 31621 31623 28
25299 31621 31624 28
25300 31621 31625 28
25301 31626 31627 28
25302 31626 31628 28
25303 31626 31629 28
25304 31626 31630 28
25305 31631 31632 28
25306 31631 31633 28
25307 31631 31634 28
25308 31631 31635 28
25309 31636 31637 28
25310 31636 31638 28
25311 31636 31639 28
25312 31636 31640 28
25313 31641 31642 28
25314 31641 31643 28
25315 31641 31644 28
25316 31641 31645 28
25317 31646 31647 28
25318 31646 31648 28
25319 31646 31649 28
25320 31646 31650 28
25321 31651 31652 28
25322 31651 31653 28
25323 31651 31654 28
25324 31651 31655 28
25325 31656 31657 28
25326 31656 31658 28
25327 31656 31659 28
25328 31656 31660 28
25329 31661 31662 28
25330 31661 31663 28
25331 31661 31664 28
25332 31661 31665 28
25333 31666 31667 28
25334 31666 31668 28
25335 31666 31669 28
25336 31666 31670 28
25337 31671 31672 28
25338 31671 31673 28
25339 31671 31674 28
25340 31671 31675 28
25341 31676 31677 28
25342 31676 31678 28
25343 31676 31679 28
25344 31676 31680 28
25345 31681 31682 28
25346 31681 31683 28
25347 31681 31684 28
25348 31681 31685 28
25349 31686 31687 28
25350 31686 31688 28
25351 31686 31689 28
25352 31686 31690 28
25353 31691 31692 28
25354 31691 31693 28
25355 31691 31694 28
25356 31691 31695 28
25357 31696 31697 28
25358 31696 31698 28
25359 31696 31699 28
25360 31696 31700 28
25361 31701 31702 28
25362 31701 31703 28
25363 31701 31704 28
25364 31701 31705 28
25365 31706 31707 28
25366 31706 31708 28
25367 31706 31709 28
25368 31706 31710 28
25369 31711 31712 28
25370 31711 31713 28
25371 31711 31714 28
25372 31711 31715 28
25373 31716 31717 28
25374 31716 31718 28
25375 31716 31719 28
25376 31716 31720 28
25377 31721 31722 28
25378 31721 31723 28
25379 31721 31724 28
25380 31721 31725 28
25381 31726 31727 28
25382 31726 31728 28
25383 31726 31729 28
25384 31726 31730 28
25385 31731 31732 28
25386 31731 31733 28
25387 31731 31734 28
25388 31731 31735 28
25389 31736 31737 28
25390 31736 31738 28
25391 31736 31739 28
25392 31736 31740 28
25393 31741 31742 28
25394 31741 31743 28
25395 31741 31744 28
25396 31741 31745 28
25397 31746 31747 28
25398 31746 31748 28
25399 31746 31749 28
25400 31746 31750 28
25401 31751 31752 28
25402 31751 31753 28
25403 31751 31754 28
25404 31751 31755 28
25405 31756 31757 28
25406 31756 31758 28
25407 31756 31759 28
25408 31756 31760 28
25409 31761 31762 28
25410 31761 31763 28
25411 31761 31764 28
25412 31761 31765 28
25413 31766 31767 28
25414 31766 31768 28
25415 31766 31769 28
25416 31766 31770 28
25417 31771 31772 28
25418 31771 31773 28
25419 31771 31774 28
25420 31771 31775 28
25421 31776 31777 28
25422 31776 31778 28
25423 31776 31779 28
25424 31776 31780 28
25425 31781 31782 28
25426 31781 31783 28
25427 31781 31784 28
25428 31781 31785 28
25429 31786 31787 28
25430 31786 31788 28
25431 31786 31789 28
25432 31786 31790 28
25433 31791 31792 28
25434 31791 31793 28
25435 31791 31794 28
25436 31791 31795 28
25437 31796 31797 28
25438 31796 31798 28
25439 31796 31799 28
25440 31796 31800 28
25441 31801 31802 28
25442 31801 31803 28
25443 31801 31804 28
25444 31801 31805 28
25445 31806 31807 28
25446 31806 31808 28
25447 31806 31809 28
25448 31806 31810 28
25449 31811 31812 28
25450 31811 31813 28
25451 31811 31814 28
25452 31811 31815 28
25453 31816 31817 28
25454 31816 31818 28
25455 31816 31819 28
25456 31816 31820 28
25457 31821 31822 28
25458 31821 31823 28
25459 31821 31824 28
25460 31821 31825 28
25461 31826 31827 28
25462 31826 31828 28
25463 31826 31829 28
25464 31826 31830 28
25465 31831 31832 28
25466 31831 31833 28
25467 31831 31834 28
25468 31831 31835 28
25469 31836 31837 28
25470 31836 31838 28
25471 31836 31839 28
25472 31836 31840 28
25473 31841 31842 28
25474 31841 31843 28
25475 31841 31844 28
25476 31841 31845 28
25477 31846 31847 28
25478 31846 31848 28
25479 31846 31849 28
25480 31846 31850 28
25481 31851 31852 28
25482 31851 31853 28
25483 31851 31854 28
25484 31851 31855 28
25485 31856 31857 28
25486 31856 31858 28
25487 31856 31859 28
25488 31856 31860 28
25489 31861 31862 28
25490 31861 31863 28
25491 31861 31864 28
25492 31861 31865 28
25493 31866 31867 28
25494 31866 31868 28
25495 31866 31869 28
25496 31866 31870 28
25497 31871 31872 28
25498 31871 31873 28
25499 31871 31874 28
25500 31871 31875 28
25501 31876 31877 28
25502 31876 31878 28
25503 31876 31879 28
25504 31876 31880 28
25505 31881 31882 28
25506 31881 31883 28
25507 31881 31884 28
25508 31881 31885 28
25509 31886 31887 28
25510 31886 31888 28
25511 31886 31889 28
25512 31886 31890 28
25513 31891 31892 28
25514 31891 31893 28
25515 31891 31894 28
25516 31891 31895 28
25517 31896 31897 28
25518 31896 31898 28
25519 31896 31899 28
25520 31896 31900 28
25521 31901 31902 28
25522 31901 31903 28
25523 31901 31904 28
25524 31901 31905 28
25525 31906 31907 28
25526 31906 31908 28
25527 31906 31909 28
25528 31906 31910 28
25529 31911 31912 28
25530 31911 31913 28
25531 31911 31914 28
25532 31911 31915 28
25533 31916 31917 28
25534 31916 31918 28
25535 31916 31919 28
25536 31916 31920 28
25537 31921 31922 28
25538 31921 31923 28
25539 31921 31924 28
25540 31921 31925 28
25541 31926 31927 28
25542 31926 31928 28
25543 31926 31929 28
25544 31926 31930 28
25545 31931 31932 28
25546 31931 31933 28
25547 31931 31934 28
25548 31931 31935 28
25549 31936 31937 28
25550 31936 31938 28
25551 31936 31939 28
25552 31936 31940 28
25553 31941 31942 28
25554 31941 31943 28
25555 31941 31944 28
25556 31941 31945 28
25557 31946 31947 28
25558 31946 31948 28
25559 31946 31949 28
25560 31946 31950 28
25561 31951 31952 28
25562 31951 31953 28
25563 31951 31954 28
25564 31951 31955 28
25565 31956 31957 28
25566 31956 31958 28
25567 31956 31959 28
25568 31956 31960 28
25569 31961 31962 28
25570 31961 31963 28
25571 31961 31964 28
25572 31961 31965 28
25573 31966 31967 28
25574 31966 31968 28
25575 31966 31969 28
25576 31966 31970 28
25577 31971 31972 28
25578 31971 31973 28
25579 31971 31974 28
25580 31971 31975 28
25581 31976 31977 28
25582 31976 31978 28
25583 31976 31979 28
25584 31976 31980 28
25585 31981 31982 28
25586 31981 31983 28
25587 31981 31984 28
25588 31981 31985 28
25589 31986 31987 28
25590 31986 31988 28
25591 31986 31989 28
25592 31986 31990 28
25593 31991 31992 28
25594 31991 31993 28
25595 31991 31994 28
25596 31991 31995 28
25597 31996 31997 28
25598 31996 31998 28
25599 31996 31999 28
25600 31996 32000 28
25601 32001 32002 28
25602 32001 32003 28
25603 32001 32004 28
25604 32001 32005 28
25605 32006 32007 28
25606 32006 32008 28
25607 32006 32009 28
25608 32006 32010 28
25609 32011 32012 28
25610 32011 32013 28
25611 32011 32014 28
25612 32011 32015 28
25613 32016 32017 28
25614 32016 32018 28
25615 32016 32019 28
25616 32016 32020 28
25617 32021 32022 28
25618 32021 32023 28
25619 32021 32024 28
25620 32021 32025 28
25621 32026 32027 28
25622 32026 32028 28
25623 32026 32029 28
25624 32026 32030 28
25625 32031 32032 28
25626 32031 32033 28
25627 32031 32034 28
25628 32031 32035 28
25629 32036 32037 28
25630 32036 32038 28
25631 32036 32039 28
25632 32036 32040 28
25633 32041 32042 28
25634 32041 32043 28
25635 32041 32044 28
25636 32041 32045 28
25637 32046 32047 28
25638 32046 32048 28
25639 32046 32049 28
25640 32046 32050 28
25641 32051 32052 28
25642 32051 32053 28
25643 32051 32054 28
25644 32051 32055 28
25645 32056 32057 28
25646 32056 32058 28
25647 32056 32059 28
25648 32056 32060 28
25649 32061 32062 28
25650 32061 32063 28
25651 32061 32064 28
25652 32061 32065 28
25653 32066 32067 28
25654 32066 32068 28
25655 32066 32069 28
25656 32066 32070 28
25657 32071 32072 28
25658 32071 32073 28
25659 32071 32074 28
25660 32071 32075 28
25661 32076 32077 28
25662 32076 32078 28
25663 32076 32079 28
25664 32076 32080 28
25665 32081 32082 28
25666 32081 32083 28
25667 32081 32084 28
25668 32081 32085 28
25669 32086 32087 28
25670 32086 32088 28
25671 32086 32089 28
25672 32086 32090 28
25673 32091 32092 28
25674 32091 32093 28
25675 32091 32094 28
25676 32091 32095 28
25677 32096 32097 28
25678 32096 32098 28
25679 32096 32099 28
25680 32096 32100 28
25681 32101 32102 28
25682 32101 32103 28
25683 32101 32104 28
25684 32101 32105 28
25685 32106 32107 28
25686 32106 32108 28
25687 32106 32109 28
25688 32106 32110 28
25689 32111 32112 28
25690 32111 32113 28
25691 32111 32114 28
25692 32111 32115 28
25693 32116 32117 28
25694 32116 32118 28
25695 32116 32119 28
25696 32116 32120 28
25697 32121 32122 28
25698 32121 32123 28
25699 32121 32124 28
25700 32121 32125 28
25701 32126 32127 28
25702 32126 32128 28
25703 32126 32129 28
25704 32126 32130 28
25705 32131 32132 28
25706 32131 32133 28
25707 32131 32134 28
25708 32131 32135 28
25709 32136 32137 28
25710 32136 32138 28
25711 32136 32139 28
25712 32136 32140 28
25713 32141 32142 28
25714 32141 32143 28
25715 32141 32144 28
25716 32141 32145 28
25717 32146 32147 28
25718 32146 32148 28
25719 32146 32149 28
25720 32146 32150 28
25721 32151 32152 28
25722 32151 32153 28
25723 32151 32154 28
25724 32151 32155 28
25725 32156 32157 28
25726 32156 32158 28
25727 32156 32159 28
25728 32156 32160 28
25729 32161 32162 28
25730 32161 32163 28
25731 32161 32164 28
25732 32161 32165 28
25733 32166 32167 28
25734 32166 32168 28
25735 32166 32169 28
25736 32166 32170 28
25737 32171 32172 28
25738 32171 32173 28
25739 32171 32174 28
25740 32171 32175 28
25741 32176 32177 28
25742 32176 32178 28
25743 32176 32179 28
25744 32176 32180 28
25745 32181 32182 28
25746 32181 32183 28
25747 32181 32184 28
25748 32181 32185 28
25749 32186 32187 28
25750 32186 32188 28
25751 32186 32189 28
25752 32186 32190 28
25753 32191 32192 28
25754 32191 32193 28
25755 32191 32194 28
25756 32191 32195 28
25757 32196 32197 28
25758 32196 32198 28
25759 32196 32199 28
25760 32196 32200 28
25761 32201 32202 28
25762 32201 32203 28
25763 32201 32204 28
25764 32201 32205 28
25765 32206 32207 28
25766 32206 32208 28
25767 32206 32209 28
25768 32206 32210 28
25769 32211 32212 28
25770 32211 32213 28
25771 32211 32214 28
25772 32211 32215 28
25773 32216 32217 28
25774 32216 32218 28
25775 32216 32219 28
25776 32216 32220 28
25777 32221 32222 28
25778 32221 32223 28
25779 32221 32224 28
25780 32221 32225 28
25781 32226 32227 28
25782 32226 32228 28
25783 32226 32229 28
25784 32226 32230 28
25785 32231 32232 28
25786 32231 32233 28
25787 32231 32234 28
25788 32231 32235 28
25789 32236 32237 28
25790 32236 32238 28
25791 32236 32239 28
25792 32236 32240 28
25793 32241 32242 28
25794 32241 32243 28
25795 32241 32244 28
25796 32241 32245 28
25797 32246 32247 28
25798 32246 32248 28
25799 32246 32249 28
25800 32246 32250 28
25801 32251 32252 28
25802 32251 32253 28
25803 32251 32254 28
25804 32251 32255 28
25805 32256 32257 28
25806 32256 32258 28
25807 32256 32259 28
25808 32256 32260 28
25809 32261 32262 28
25810 32261 32263 28
25811 32261 32264 28
25812 32261 32265 28
25813 32266 32267 28
25814 32266 32268 28
25815 32266 32269 28
25816 32266 32270 28
25817 32271 32272 28
25818 32271 32273 28
25819 32271 32274 28
25820 32271 32275 28
25821 32276 32277 28
25822 32276 32278 28
25823 32276 32279 28
25824 32276 32280 28
25825 32281 32282 28
25826 32281 32283 28
25827 32281 32284 28
25828 32281 32285 28
25829 32286 32287 28
25830 32286 32288 28
25831 32286 32289 28
25832 32286 32290 28
25833 32291 32292 28
25834 32291 32293 28
25835 32291 32294 28
25836 32291 32295 28
25837 32296 32297 28
25838 32296 32298 28
25839 32296 32299 28
25840 32296 32300 28
25841 32301 32302 28
25842 32301 32303 28
25843 32301 32304 28
25844 32301 32305 28
25845 32306 32307 28
25846 32306 32308 28
25847 32306 32309 28
25848 32306 32310 28
25849 32311 32312 28
25850 32311 32313 28
25851 32311 32314 28
25852 32311 32315 28
25853 32316 32317 28
25854 32316 32318 28
25855 32316 32319 28
25856 32316 32320 28
25857 32321 32322 28
25858 32321 32323 28
25859 32321 32324 28
25860 32321 32325 28
25861 32326 32327 28
25862 32326 32328 28
25863 32326 32329 28
25864 32326 32330 28
25865 32331 32332 28
25866 32331 32333 28
25867 32331 32334 28
25868 32331 32335 28
25869 32336 32337 28
25870 32336 32338 28
25871 32336 32339 28
25872 32336 32340 28
25873 32341 32342 28
25874 32341 32343 28
25875 32341 32344 28
25876 32341 32345 28
25877 32346 32347 28
25878 32346 32348 28
25879 32346 32349 28
25880 32346 32350 28
25881 32351 32352 28
25882 32351 32353 28
25883 32351 32354 28
25884 32351 32355 28
25885 32356 32357 28
25886 32356 32358 28
25887 32356 32359 28
25888 32356 32360 28
25889 32361 32362 28
25890 32361 32363 28
25891 32361 32364 28
25892 32361 32365 28
25893 32366 32367 28
25894 32366 32368 28
25895 32366 32369 28
25896 32366 32370 28
25897 32371 32372 28
25898 32371 32373 28
25899 32371 32374 28
25900 32371 32375 28
25901 32376 32377 28
25902 32376 32378 28
25903 32376 32379 28
25904 32376 32380 28
25905 32381 32382 28
25906 32381 32383 28
25907 32381 32384 28
25908 32381 32385 28
25909 32386 32387 28
25910 32386 32388 28
25911 32386 32389 28
25912 32386 32390 28
25913 32391 32392 28
25914 32391 32393 28
25915 32391 32394 28
25916 32391 32395 28
25917 32396 32397 28
25918 32396 32398 28
25919 32396 32399 28
25920 32396 32400 28
25921 32401 32402 28
25922 32401 32403 28
25923 32401 32404 28
25924 32401 32405 28
25925 32406 32407 28
25926 32406 32408 28
25927 32406 32409 28
25928 32406 32410 28
25929 32411 32412 28
25930 32411 32413 28
25931 32411 32414 28
25932 32411 32415 28
25933 32416 32417 28
25934 32416 32418 28
25935 32416 32419 28
25936 32416 32420 28
25937 32421 32422 28
25938 32421 32423 28
25939 32421 32424 28
25940 32421 32425 28
25941 32426 32427 28
25942 32426 32428 28
25943 32426 32429 28
25944 32426 32430 28
25945 32431 32432 28
25946 32431 32433 28
25947 32431 32434 28
25948 32431 32435 28
25949 32436 32437 28
25950 32436 32438 28
25951 32436 32439 28
25952 32436 32440 28
25953 32441 32442 28
25954 32441 32443 28
25955 32441 32444 28
25956 32441 32445 28
25957 32446 32447 28
25958 32446 32448 28
25959 32446 32449 28
25960 32446 32450 28
25961 32451 32452 28
25962 32451 32453 28
25963 32451 32454 28
25964 32451 32455 28
25965 32456 32457 28
25966 32456 32458 28
25967 32456 32459 28
25968 32456 32460 28
25969 32461 32462 28
25970 32461 32463 28
25971 32461 32464 28
25972 32461 32465 28
25973 32466 32467 28
25974 32466 32468 28
25975 32466 32469 28
25976 32466 32470 28
25977 32471 32472 28
25978 32471 32473 28
25979 32471 32474 28
25980 32471 32475 28
25981 32476 32477 28
25982 32476 32478 28
25983 32476 32479 28
25984 32476 32480 28
25985 32481 32482 28
25986 32481 32483 28
25987 32481 32484 28
25988 32481 32485 28
25989 32486 32487 28
25990 32486 32488 28
25991 32486 32489 28
25992 32486 32490 28
25993 32491 32492 28
25994 32491 32493 28
25995 32491 32494 28
25996 32491 32495 28
25997 32496 32497 28
25998 32496 32498 28
25999 32496 32499 28
26000 32496 32500 28
26001 32501 32502 28
26002 32501 32503 28
26003 32501 32504 28
26004 32501 32505 28
26005 32506 32507 28
26006 32506 32508 28
26007 32506 32509 28
26008 32506 32510 28
26009 32511 32512 28
26010 32511 32513 28
26011 32511 32514 28
26012 32511 32515 28
26013 32516 32517 28
26014 32516 32518 28
26015 32516 32519 28
26016 32516 32520 28
26017 32521 32522 28
26018 32521 32523 28
26019 32521 32524 28
26020 32521 32525 28
26021 32526 32527 28
26022 32526 32528 28
26023 32526 32529 28
26024 32526 32530 28
26025 32531 32532 28
26026 32531 32533 28
26027 32531 32534 28
26028 32531 32535 28
26029 32536 32537 28
26030 32536 32538 28
26031 32536 32539 28
26032 32536 32540 28
26033 32541 32542 28
26034 32541 32543 28
26035 32541 32544 28
26036 32541 32545 28
26037 32546 32547 28
26038 32546 32548 28
26039 32546 32549 28
26040 32546 32550 28
26041 32551 32552 28
26042 32551 32553 28
26043 32551 32554 28
26044 32551 32555 28
26045 32556 32557 28
26046 32556 32558 28
26047 32556 32559 28
26048 32556 32560 28
26049 32561 32562 28
26050 32561 32563 28
26051 32561 32564 28
26052 32561 32565 28
26053 32566 32567 28
26054 32566 32568 28
26055 32566 32569 28
26056 32566 32570 28
26057 32571 32572 28
26058 32571 32573 28
26059 32571 32574 28
26060 32571 32575 28
26061 32576 32577 28
26062 32576 32578 28
26063 32576 32579 28
26064 32576 32580 28
26065 32581 32582 28
26066 32581 32583 28
26067 32581 32584 28
26068 32581 32585 28
26069 32586 32587 28
26070 32586 32588 28
26071 32586 32589 28
26072 32586 32590 28
26073 32591 32592 28
26074 32591 32593 28
26075 32591 32594 28
26076 32591 32595 28
26077 32596 32597 28
26078 32596 32598 28
26079 32596 32599 28
26080 32596 32600 28
26081 32601 32602 28
26082 32601 32603 28
26083 32601 32604 28
26084 32601 32605 28
26085 32606 32607 28
26086 32606 32608 28
26087 32606 32609 28
26088 32606 32610 28
26089 32611 32612 28
26090 32611 32613 28
26091 32611 32614 28
26092 32611 32615 28
26093 32616 32617 28
26094 32616 32618 28
26095 32616 32619 28
26096 32616 32620 28
26097 32621 32622 28
26098 32621 32623 28
26099 32621 32624 28
26100 32621 32625 28
26101 32626 32627 28
26102 32626 32628 28
26103 32626 32629 28
26104 32626 32630 28
26105 32631 32632 28
26106 32631 32633 28
26107 32631 32634 28
26108 32631 32635 28
26109 32636 32637 28
26110 32636 32638 28
26111 32636 32639 28
26112 32636 32640 28
26113 32641 32642 28
26114 32641 32643 28
26115 32641 32644 28
26116 32641 32645 28
26117 32646 32647 28
26118 32646 32648 28
26119 32646 32649 28
26120 32646 32650 28
26121 32651 32652 28
26122 32651 32653 28
26123 32651 32654 28
26124 32651 32655 28
26125 32656 32657 28
26126 32656 32658 28
26127 32656 32659 28
26128 32656 32660 28
26129 32661 32662 28
26130 32661 32663 28
26131 32661 32664 28
26132 32661 32665 28
26133 32666 32667 28
26134 32666 32668 28
26135 32666 32669 28
26136 32666 32670 28
26137 32671 32672 28
26138 32671 32673 28
26139 32671 32674 28
26140 32671 32675 28
26141 32676 32677 28
26142 32676 32678 28
26143 32676 32679 28
26144 32676 32680 28
26145 32681 32682 28
26146 32681 32683 28
26147 32681 32684 28
26148 32681 32685 28
26149 32686 32687 28
26150 32686 32688 28
26151 32686 32689 28
26152 32686 32690 28
26153 32691 32692 28
26154 32691 32693 28
26155 32691 32694 28
26156 32691 32695 28
26157 32696 32697 28
26158 32696 32698 28
26159 32696 32699 28
26160 32696 32700 28
26161 32701 32702 28
26162 32701 32703 28
26163 32701 32704 28
26164 32701 32705 28
26165 32706 32707 28
26166 32706 32708 28
26167 32706 32709 28
26168 32706 32710 28
26169 32711 32712 28
26170 32711 32713 28
26171 32711 32714 28
26172 32711 32715 28
26173 32716 32717 28
26174 32716 32718 28
26175 32716 32719 28
26176 32716 32720 28
26177 32721 32722 28
26178 32721 32723 28
26179 32721 32724 28
26180 32721 32725 28
26181 32726 32727 28
26182 32726 32728 28
26183 32726 32729 28
26184 32726 32730 28
26185 32731 32732 28
26186 32731 32733 28
26187 32731 32734 28
26188 32731 32735 28
26189 32736 32737 28
26190 32736 32738 28
26191 32736 32739 28
26192 32736 32740 28
26193 32741 32742 28
26194 32741 32743 28
26195 32741 32744 28
26196 32741 32745 28
26197 32746 32747 28
26198 32746 32748 28
26199 32746 32749 28
26200 32746 32750 28
26201 32751 32752 28
26202 32751 32753 28
26203 32751 32754 28
26204 32751 32755 28
26205 32756 32757 28
26206 32756 32758 28
26207 32756 32759 28
26208 32756 32760 28
26209 32761 32762 28
26210 32761 32763 28
26211 32761 32764 28
26212 32761 32765 28
26213 32766 32767 28
26214 32766 32768 28
26215 32766 32769 28
26216 32766 32770 28
26217 32771 32772 28
26218 32771 32773 28
26219 32771 32774 28
26220 32771 32775 28
26221 32776 32777 28
26222 32776 32778 28
26223 32776 32779 28
26224 32776 32780 28
26225 32781 32782 28
26226 32781 32783 28
26227 32781 32784 28
26228 32781 32785 28
26229 32786 32787 28
26230 32786 32788 28
26231 32786 32789 28
26232 32786 32790 28
26233 32791 32792 28
26234 32791 32793 28
26235 32791 32794 28
26236 32791 32795 28
26237 32796 32797 28
26238 32796 32798 28
26239 32796 32799 28
26240 32796 32800 28
26241 32801 32802 28
26242 32801 32803 28
26243 32801 32804 28
26244 32801 32805 28
26245 32806 32807 28
26246 32806 32808 28
26247 32806 32809 28
26248 32806 32810 28
26249 32811 32812 28
26250 32811 32813 28
26251 32811 32814 28
26252 32811 32815 28
26253 32816 32817 28
26254 32816 32818 28
26255 32816 32819 28
26256 32816 32820 28
26257 32821 32822 28
26258 32821 32823 28
26259 32821 32824 28
26260 32821 32825 28
26261 32826 32827 28
26262 32826 32828 28
26263 32826 32829 28
26264 32826 32830 28
26265 32831 32832 28
26266 32831 32833 28
26267 32831 32834 28
26268 32831 32835 28
26269 32836 32837 28
26270 32836 32838 28
26271 32836 32839 28
26272 32836 32840 28
26273 32841 32842 28
26274 32841 32843 28
26275 32841 32844 28
26276 32841 32845 28
26277 32846 32847 28
26278 32846 32848 28
26279 32846 32849 28
26280 32846 32850 28
26281 32851 32852 28
26282 32851 32853 28
26283 32851 32854 28
26284 32851 32855 28
26285 32856 32857 28
26286 32856 32858 28
26287 32856 32859 28
26288 32856 32860 28
26289 32861 32862 28
26290 32861 32863 28
26291 32861 32864 28
26292 32861 32865 28
26293 32866 32867 28
26294 32866 32868 28
26295 32866 32869 28
26296 32866 32870 28
26297 32871 32872 28
26298 32871 32873 28
26299 32871 32874 28
26300 32871 32875 28
26301 32876 32877 28
26302 32876 32878 28
26303 32876 32879 28
26304 32876 32880 28
26305 32881 32882 28
26306 32881 32883 28
26307 32881 32884 28
26308 32881 32885 28
26309 32886 32887 28
26310 32886 32888 28
26311 32886 32889 28
26312 32886 32890 28
26313 32891 32892 28
26314 32891 32893 28
26315 32891 32894 28
26316 32891 32895 28
26317 32896 32897 28
26318 32896 32898 28
26319 32896 32899 28
26320 32896 32900 28
26321 32901 32902 28
26322 32901 32903 28
26323 32901 32904 28
26324 32901 32905 28
26325 32906 32907 28
26326 32906 32908 28
26327 32906 32909 28
26328 32906 32910 28
26329 32911 32912 28
26330 32911 32913 28
26331 32911 32914 28
26332 32911 32915 28
26333 32916 32917 28
26334 32916 32918 28
26335 32916 32919 28
26336 32916 32920 28
26337 32921 32922 28
26338 32921 32923 28
26339 32921 32924 28
26340 32921 32925 28
26341 32926 32927 28
26342 32926 32928 28
26343 32926 32929 28
26344 32926 32930 28
26345 32931 32932 28
26346 32931 32933 28
26347 32931 32934 28
26348 32931 32935 28
26349 32936 32937 28
26350 32936 32938 28
26351 32936 32939 28
26352 32936 32940 28
26353 32941 32942 28
26354 32941 32943 28
26355 32941 32944 28
26356 32941 32945 28
26357 32946 32947 28
26358 32946 32948 28
26359 32946 32949 28
26360 32946 32950 28
26361 32951 32952 28
26362 32951 32953 28
26363 32951 32954 28
26364 32951 32955 28
26365 32956 32957 28
26366 32956 32958 28
26367 32956 32959 28
26368 32956 32960 28
26369 32961 32962 28
26370 32961 32963 28
26371 32961 32964 28
26372 32961 32965 28
26373 32966 32967 28
26374 32966 32968 28
26375 32966 32969 28
26376 32966 32970 28
26377 32971 32972 28
26378 32971 32973 28
26379 32971 32974 28
26380 32971 32975 28
26381 32976 32977 28
26382 32976 32978 28
26383 32976 32979 28
26384 32976 32980 28
26385 32981 32982 28
26386 32981 32983 28
26387 32981 32984 28
26388 32981 32985 28
26389 32986 32987 28
26390 32986 32988 28
26391 32986 32989 28
26392 32986 32990 28
26393 32991 32992 28
26394 32991 32993 28
26395 32991 32994 28
26396 32991 32995 28
26397 32996 32997 28
26398 32996 32998 28
26399 32996 32999 28
26400 32996 33000 28
26401 33001 33002 28
26402 33001 33003 28
26403 33001 33004 28
26404 33001 33005 28
26405 33006 33007 28
26406 33006 33008 28
26407 33006 33009 28
26408 33006 33010 28
26409 33011 33012 28
26410 33011 33013 28
26411 33011 33014 28
26412 33011 33015 28
26413 33016 33017 28
26414 33016 33018 28
26415 33016 33019 28
26416 33016 33020 28
26417 33021 33022 28
26418 33021 33023 28
26419 33021 33024 28
26420 33021 33025 28
26421 33026 33027 28
26422 33026 33028 28
26423 33026 33029 28
26424 33026 33030 28
26425 33031 33032 28
26426 33031 33033 28
26427 33031 33034 28
26428 33031 33035 28
26429 33036 33037 28
26430 33036 33038 28
26431 33036 33039 28
26432 33036 33040 28
26433 33041 33042 28
26434 33041 33043 28
26435 33041 33044 28
26436 33041 33045 28
26437 33046 33047 28
26438 33046 33048 28
26439 33046 33049 28
26440 33046 33050 28
26441 33051 33052 28
26442 33051 33053 28
26443 33051 33054 28
26444 33051 33055 28
26445 33056 33057 28
26446 33056 33058 28
26447 33056 33059 28
26448 33056 33060 28
26449 33061 33062 28
26450 33061 33063 28
26451 33061 33064 28
26452 33061 33065 28
26453 33066 33067 28
26454 33066 33068 28
26455 33066 33069 28
26456 33066 33070 28
26457 33071 33072 28
26458 33071 33073 28
26459 33071 33074 28
26460 33071 33075 28
26461 33076 33077 28
26462 33076 33078 28
26463 33076 33079 28
26464 33076 33080 28
26465 33081 33082 28
26466 33081 33083 28
26467 33081 33084 28
26468 33081 33085 28
26469 33086 33087 28
26470 33086 33088 28
26471 33086 33089 28
26472 33086 33090 28
26473 33091 33092 28
26474 33091 33093 28
26475 33091 33094 28
26476 33091 33095 28
26477 33096 33097 28
26478 33096 33098 28
26479 33096 33099 28
26480 33096 33100 28
26481 33101 33102 28
26482 33101 33103 28
26483 33101 33104 28
26484 33101 33105 28
26485 33106 33107 28
26486 33106 33108 28
26487 33106 33109 28
26488 33106 33110 28
26489 33111 33112 28
26490 33111 33113 28
26491 33111 33114 28
26492 33111 33115 28
26493 33116 33117 28
26494 33116 33118 28
26495 33116 33119 28
26496 33116 33120 28
26497 33121 33122 28
26498 33121 33123 28
26499 33121 33124 28
26500 33121 33125 28
26501 33126 33127 28
26502 33126 33128 28
26503 33126 33129 28
26504 33126 33130 28
26505 33131 33132 28
26506 33131 33133 28
26507 33131 33134 28
26508 33131 33135 28
26509 33136 33137 28
26510 33136 33138 28
26511 33136 33139 28
26512 33136 33140 28
26513 33141 33142 28
26514 33141 33143 28
26515 33141 33144 28
26516 33141 33145 28
26517 33146 33147 28
26518 33146 33148 28
26519 33146 33149 28
26520 33146 33150 28
26521 33151 33152 28
26522 33151 33153 28
26523 33151 33154 28
26524 33151 33155 28
26525 33156 33157 28
26526 33156 33158 28
26527 33156 33159 28
26528 33156 33160 28
26529 33161 33162 28
26530 33161 33163 28
26531 33161 33164 28
26532 33161 33165 28
26533 33166 33167 28
26534 33166 33168 28
26535 33166 33169 28
26536 33166 33170 28
26537 33171 33172 28
26538 33171 33173 28
26539 33171 33174 28
26540 33171 33175 28
26541 33176 33177 28
26542 33176 33178 28
26543 33176 33179 28
26544 33176 33180 28
26545 33181 33182 28
26546 33181 33183 28
26547 33181 33184 28
26548 33181 33185 28
26549 33186 33187 28
26550 33186 33188 28
26551 33186 33189 28
26552 33186 33190 28
26553 33191 33192 28
26554 33191 33193 28
26555 33191 33194 28
26556 33191 33195 28
26557 33196 33197 28
26558 33196 33198 28
26559 33196 33199 28
26560 33196 33200 28
26561 33201 33202 28
26562 33201 33203 28
26563 33201 33204 28
26564 33201 33205 28
26565 33206 33207 28
26566 33206 33208 28
26567 33206 33209 28
26568 33206 33210 28
26569 33211 33212 28
26570 33211 33213 28
26571 33211 33214 28
26572 33211 33215 28
26573 33216 33217 28
26574 33216 33218 28
26575 33216 33219 28
26576 33216 33220 28
26577 33221 33222 28
26578 33221 33223 28
26579 33221 33224 28
26580 33221 33225 28
26581 33226 33227 28
26582 33226 33228 28
26583 33226 33229 28
26584 33226 33230 28
26585 33231 33232 28
26586 33231 33233 28
26587 33231 33234 28
26588 33231 33235 28
26589 33236 33237 28
26590 33236 33238 28
26591 33236 33239 28
26592 33236 33240 28
26593 33241 33242 28
26594 33241 33243 28
26595 33241 33244 28
26596 33241 33245 28
26597 33246 33247 28
26598 33246 33248 28
26599 33246 33249 28
26600 33246 33250 28
26601 33251 33252 28
26602 33251 33253 28
26603 33251 33254 28
26604 33251 33255 28
26605 33256 33257 28
26606 33256 33258 28
26607 33256 33259 28
26608 33256 33260 28
26609 33261 33262 28
26610 33261 33263 28
26611 33261 33264 28
26612 33261 33265 28
26613 33266 33267 28
26614 33266 33268 28
26615 33266 33269 28
26616 33266 33270 28
26617 33271 33272 28
26618 33271 33273 28
26619 33271 33274 28
26620 33271 33275 28
26621 33276 33277 28
26622 33276 33278 28
26623 33276 33279 28
26624 33276 33280 28
26625 33281 33282 28
26626 33281 33283 28
26627 33281 33284 28
26628 33281 33285 28
26629 33286 33287 28
26630 33286 33288 28
26631 33286 33289 28
26632 33286 33290 28
26633 33291 33292 28
26634 33291 33293 28
26635 33291 33294 28
26636 33291 33295 28
26637 33296 33297 28
26638 33296 33298 28
26639 33296 33299 28
26640 33296 33300 28
26641 33301 33302 28
26642 33301 33303 28
26643 33301 33304 28
26644 33301 33305 28
26645 33306 33307 28
26646 33306 33308 28
26647 33306 33309 28
26648 33306 33310 28
26649 33311 33312 28
26650 33311 33313 28
26651 33311 33314 28
26652 33311 33315 28
26653 33316 33317 28
26654 33316 33318 28
26655 33316 33319 28
26656 33316 33320 28
26657 33321 33322 28
26658 33321 33323 28
26659 33321 33324 28
26660 33321 33325 28
26661 33326 33327 28
26662 33326 33328 28
26663 33326 33329 28
26664 33326 33330 28
26665 33331 33332 28
26666 33331 33333 28
26667 33331 33334 28
26668 33331 33335 28
26669 33336 33337 28
26670 33336 33338 28
26671 33336 33339 28
26672 33336 33340 28
26673 33341 33342 28
26674 33341 33343 28
26675 33341 33344 28
26676 33341 33345 28
26677 33346 33347 28
26678 33346 33348 28
26679 33346 33349 28
26680 33346 33350 28
26681 33351 33352 28
26682 33351 33353 28
26683 33351 33354 28
26684 33351 33355 28
26685 33356 33357 28
26686 33356 33358 28
26687 33356 33359 28
26688 33356 33360 28
26689 33361 33362 28
26690 33361 33363 28
26691 33361 33364 28
26692 33361 33365 28
26693 33366 33367 28
26694 33366 33368 28
26695 33366 33369 28
26696 33366 33370 28
26697 33371 33372 28
26698 33371 33373 28
26699 33371 33374 28
26700 33371 33375 28
26701 33376 33377 28
26702 33376 33378 28
26703 33376 33379 28
26704 33376 33380 28
26705 33381 33382 28
26706 33381 33383 28
26707 33381 33384 28
26708 33381 33385 28
26709 33386 33387 28
26710 33386 33388 28
26711 33386 33389 28
26712 33386 33390 28
26713 33391 33392 28
26714 33391 33393 28
26715 33391 33394 28
26716 33391 33395 28
26717 33396 33397 28
26718 33396 33398 28
26719 33396 33399 28
26720 33396 33400 28
26721 33401 33402 28
26722 33401 33403 28
26723 33401 33404 28
26724 33401 33405 28
26725 33406 33407 28
26726 33406 33408 28
26727 33406 33409 28
26728 33406 33410 28
26729 33411 33412 28
26730 33411 33413 28
26731 33411 33414 28
26732 33411 33415 28
26733 33416 33417 28
26734 33416 33418 28
26735 33416 33419 28
26736 33416 33420 28
26737 33421 33422 28
26738 33421 33423 28
26739 33421 33424 28
26740 33421 33425 28
26741 33426 33427 28
26742 33426 33428 28
26743 33426 33429 28
26744 33426 33430 28
26745 33431 33432 28
26746 33431 33433 28
26747 33431 33434 28
26748 33431 33435 28
26749 33436 33437 28
26750 33436 33438 28
26751 33436 33439 28
26752 33436 33440 28
26753 33441 33442 28
26754 33441 33443 28
26755 33441 33444 28
26756 33441 33445 28
26757 33446 33447 28
26758 33446 33448 28
26759 33446 33449 28
26760 33446 33450 28
26761 33451 33452 28
26762 33451 33453 28
26763 33451 33454 28
26764 33451 33455 28
26765 33456 33457 28
26766 33456 33458 28
26767 33456 33459 28
26768 33456 33460 28
26769 33461 33462 28
26770 33461 33463 28
26771 33461 33464 28
26772 33461 33465 28
26773 33466 33467 28
26774 33466 33468 28
26775 33466 33469 28
26776 33466 33470 28
26777 33471 33472 28
26778 33471 33473 28
26779 33471 33474 28
26780 33471 33475 28
26781 33476 33477 28
26782 33476 33478 28
26783 33476 33479 28
26784 33476 33480 28
26785 33481 33482 28
26786 33481 33483 28
26787 33481 33484 28
26788 33481 33485 28
26789 33486 33487 28
26790 33486 33488 28
26791 33486 33489 28
26792 33486 33490 28
26793 33491 33492 28
26794 33491 33493 28
26795 33491 33494 28
26796 33491 33495 28
26797 33496 33497 28
26798 33496 33498 28
26799 33496 33499 28
26800 33496 33500 28
26801 33501 33502 28
26802 33501 33503 28
26803 33501 33504 28
26804 33501 33505 28
26805 33506 33507 28
26806 33506 33508 28
26807 33506 33509 28
26808 33506 33510 28
26809 33511 33512 28
26810 33511 33513 28
26811 33511 33514 28
26812 33511 33515 28
26813 33516 33517 28
26814 33516 33518 28
26815 33516 33519 28
26816 33516 33520 28
26817 33521 33522 28
26818 33521 33523 28
26819 33521 33524 28
26820 33521 33525 28
26821 33526 33527 28
26822 33526 33528 28
26823 33526 33529 28
26824 33526 33530 28
26825 33531 33532 28
26826 33531 33533 28
26827 33531 33534 28
26828 33531 33535 28
26829 33536 33537 28
26830 33536 33538 28
26831 33536 33539 28
26832 33536 33540 28
26833 33541 33542 28
26834 33541 33543 28
26835 33541 33544 28
26836 33541 33545 28
26837 33546 33547 28
26838 33546 33548 28
26839 33546 33549 28
26840 33546 33550 28
26841 33551 33552 28
26842 33551 33553 28
26843 33551 33554 28
26844 33551 33555 28
26845 33556 33557 28
26846 33556 33558 28
26847 33556 33559 28
26848 33556 33560 28
26849 33561 33562 28
26850 33561 33563 28
26851 33561 33564 28
26852 33561 33565 28
26853 33566 33567 28
26854 33566 33568 28
26855 33566 33569 28
26856 33566 33570 28
26857 33571 33572 28
26858 33571 33573 28
26859 33571 33574 28
26860 33571 33575 28
26861 33576 33577 28
26862 33576 33578 28
26863 33576 33579 28
26864 33576 33580 28
26865 33581 33582 28
26866 33581 33583 28
26867 33581 33584 28
26868 33581 33585 28
26869 33586 33587 28
26870 33586 33588 28
26871 33586 33589 28
26872 33586 33590 28
26873 33591 33592 28
26874 33591 33593 28
26875 33591 33594 28
26876 33591 33595 28
26877 33596 33597 28
26878 33596 33598 28
26879 33596 33599 28
26880 33596 33600 28
26881 33601 33602 28
26882 33601 33603 28
26883 33601 33604 28
26884 33601 33605 28
26885 33606 33607 28
26886 33606 33608 28
26887 33606 33609 28
26888 33606 33610 28
26889 33611 33612 28
26890 33611 33613 28
26891 33611 33614 28
26892 33611 33615 28
26893 33616 33617 28
26894 33616 33618 28
26895 33616 33619 28
26896 33616 33620 28
26897 33621 33622 28
26898 33621 33623 28
26899 33621 33624 28
26900 33621 33625 28
26901 33626 33627 28
26902 33626 33628 28
26903 33626 33629 28
26904 33626 33630 28
26905 33631 33632 28
26906 33631 33633 28
26907 33631 33634 28
26908 33631 33635 28
26909 33636 33637 28
26910 33636 33638 28
26911 33636 33639 28
26912 33636 33640 28
26913 33641 33642 28
26914 33641 33643 28
26915 33641 33644 28
26916 33641 33645 28
26917 33646 33647 28
26918 33646 33648 28
26919 33646 33649 28
26920 33646 33650 28
26921 33651 33652 28
26922 33651 33653 28
26923 33651 33654 28
26924 33651 33655 28
26925 33656 33657 28
26926 33656 33658 28
26927 33656 33659 28
26928 33656 33660 28
26929 33661 33662 28
26930 33661 33663 28
26931 33661 33664 28
26932 33661 33665 28
26933 33666 33667 28
26934 33666 33668 28
26935 33666 33669 28
26936 33666 33670 28
26937 33671 33672 28
26938 33671 33673 28
26939 33671 33674 28
26940 33671 33675 28
26941 33676 33677 28
26942 33676 33678 28
26943 33676 33679 28
26944 33676 33680 28
26945 33681 33682 28
26946 33681 33683 28
26947 33681 33684 28
26948 33681 33685 28
26949 33686 33687 28
26950 33686 33688 28
26951 33686 33689 28
26952 33686 33690 28
26953 33691 33692 28
26954 33691 33693 28
26955 33691 33694 28
26956 33691 33695 28
26957 33696 33697 28
26958 33696 33698 28
26959 33696 33699 28
26960 33696 33700 28
26961 33701 33702 28
26962 33701 33703 28
26963 33701 33704 28
26964 33701 33705 28
26965 33706 33707 28
26966 33706 33708 28
26967 33706 33709 28
26968 33706 33710 28
26969 33711 33712 28
26970 33711 33713 28
26971 33711 33714 28
26972 33711 33715 28
26973 33716 33717 28
26974 33716 33718 28
26975 33716 33719 28
26976 33716 33720 28
26977 33721 33722 28
26978 33721 33723 28
26979 33721 33724 28
26980 33721 33725 28
26981 33726 33727 28
26982 33726 33728 28
26983 33726 33729 28
26984 33726 33730 28
26985 33731 33732 28
26986 33731 33733 28
26987 33731 33734 28
26988 33731 33735 28
26989 33736 33737 28
26990 33736 33738 28
26991 33736 33739 28
26992 33736 33740 28
26993 33741 33742 28
26994 33741 33743 28
26995 33741 33744 28
26996 33741 33745 28
26997 33746 33747 28
26998 33746 33748 28
26999 33746 33749 28
27000 33746 33750 28
27001 33751 33752 28
27002 33751 33753 28
27003 33751 33754 28
27004 33751 33755 28
27005 33756 33757 28
27006 33756 33758 28
27007 33756 33759 28
27008 33756 33760 28
27009 33761 33762 28
27010 33761 33763 28
27011 33761 33764 28
27012 33761 33765 28
27013 33766 33767 28
27014 33766 33768 28
27015 33766 33769 28
27016 33766 33770 28
27017 33771 33772 28
27018 33771 33773 28
27019 33771 33774 28
27020 33771 33775 28
27021 33776 33777 28
27022 33776 33778 28
27023 33776 33779 28
27024 33776 33780 28
27025 33781 33782 28
27026 33781 33783 28
27027 33781 33784 28
27028 33781 33785 28
27029 33786 33787 28
27030 33786 33788 28
27031 33786 33789 28
27032 33786 33790 28
27033 33791 33792 28
27034 33791 33793 28
27035 33791 33794 28
27036 33791 33795 28
27037 33796 33797 28
27038 33796 33798 28
27039 33796 33799 28
27040 33796 33800 28
27041 33801 33802 28
27042 33801 33803 28
27043 33801 33804 28
27044 33801 33805 28
27045 33806 33807 28
27046 33806 33808 28
27047 33806 33809 28
27048 33806 33810 28
27049 33811 33812 28
27050 33811 33813 28
27051 33811 33814 28
27052 33811 33815 28
27053 33816 33817 28
27054 33816 33818 28
27055 33816 33819 28
27056 33816 33820 28
27057 33821 33822 28
27058 33821 33823 28
27059 33821 33824 28
27060 33821 33825 28
27061 33826 33827 28
27062 33826 33828 28
27063 33826 33829 28
27064 33826 33830 28
27065 33831 33832 28
27066 33831 33833 28
27067 33831 33834 28
27068 33831 33835 28
27069 33836 33837 28
27070 33836 33838 28
27071 33836 33839 28
27072 33836 33840 28
27073 33841 33842 28
27074 33841 33843 28
27075 33841 33844 28
27076 33841 33845 28
27077 33846 33847 28
27078 33846 33848 28
27079 33846 33849 28
27080 33846 33850 28
27081 33851 33852 28
27082 33851 33853 28
27083 33851 33854 28
27084 33851 33855 28
27085 33856 33857 28
27086 33856 33858 28
27087 33856 33859 28
27088 33856 33860 28
27089 33861 33862 28
27090 33861 33863 28
27091 33861 33864 28
27092 33861 33865 28
27093 33866 33867 28
27094 33866 33868 28
27095 33866 33869 28
27096 33866 33870 28
27097 33871 33872 28
27098 33871 33873 28
27099 33871 33874 28
27100 33871 33875 28
27101 33876 33877 28
27102 33876 33878 28
27103 33876 33879 28
27104 33876 33880 28
27105 33881 33882 28
27106 33881 33883 28
27107 33881 33884 28
27108 33881 33885 28
27109 33886 33887 28
27110 33886 33888 28
27111 33886 33889 28
27112 33886 33890 28
27113 33891 33892 28
27114 33891 33893 28
27115 33891 33894 28
27116 33891 33895 28
27117 33896 33897 28
27118 33896 33898 28
27119 33896 33899 28
27120 33896 33900 28
27121 33901 33902 28
27122 33901 33903 28
27123 33901 33904 28
27124 33901 33905 28
27125 33906 33907 28
27126 33906 33908 28
27127 33906 33909 28
27128 33906 33910 28
27129 33911 33912 28
27130 33911 33913 28
27131 33911 33914 28
27132 33911 33915 28
27133 33916 33917 28
27134 33916 33918 28
27135 33916 33919 28
27136 33916 33920 28
27137 33921 33922 28
27138 33921 33923 28
27139 33921 33924 28
27140 33921 33925 28
27141 33926 33927 28
27142 33926 33928 28
27143 33926 33929 28
27144 33926 33930 28
27145 33931 33932 28
27146 33931 33933 28
27147 33931 33934 28
27148 33931 33935 28
27149 33936 33937 28
27150 33936 33938 28
27151 33936 33939 28
27152 33936 33940 28
27153 33941 33942 28
27154 33941 33943 28
27155 33941 33944 28
27156 33941 33945 28
27157 33946 33947 28
27158 33946 33948 28
27159 33946 33949 28
27160 33946 33950 28
27161 33951 33952 28
27162 33951 33953 28
27163 33951 33954 28
27164 33951 33955 28
27165 33956 33957 28
27166 33956 33958 28
27167 33956 33959 28
27168 33956 33960 28
27169 33961 33962 28
27170 33961 33963 28
27171 33961 33964 28
27172 33961 33965 28
27173 33966 33967 28
27174 33966 33968 28
27175 33966 33969 28
27176 33966 33970 28
27177 33971 33972 28
27178 33971 33973 28
27179 33971 33974 28
27180 33971 33975 28
27181 33976 33977 28
27182 33976 33978 28
27183 33976 33979 28
27184 33976 33980 28
27185 33981 33982 28
27186 33981 33983 28
27187 33981 33984 28
27188 33981 33985 28
27189 33986 33987 28
27190 33986 33988 28
27191 33986 33989 28
27192 33986 33990 28
27193 33991 33992 28
27194 33991 33993 28
27195 33991 33994 28
27196 33991 33995 28
27197 33996 33997 28
27198 33996 33998 28
27199 33996 33999 28
27200 33996 34000 28
27201 34001 34002 28
27202 34001 34003 28
27203 34001 34004 28
27204 34001 34005 28
27205 34006 34007 28
27206 34006 34008 28
27207 34006 34009 28
27208 34006 34010 28
27209 34011 34012 28
27210 34011 34013 28
27211 34011 34014 28
27212 34011 34015 28
27213 34016 34017 28
27214 34016 34018 28
27215 34016 34019 28
27216 34016 34020 28
27217 34021 34022 28
27218 34021 34023 28
27219 34021 34024 28
27220 34021 34025 28
27221 34026 34027 28
27222 34026 34028 28
27223 34026 34029 28
27224 34026 34030 28
27225 34031 34032 28
27226 34031 34033 28
27227 34031 34034 28
27228 34031 34035 28
27229 34036 34037 28
27230 34036 34038 28
27231 34036 34039 28
27232 34036 34040 28
27233 34041 34042 28
27234 34041 34043 28
27235 34041 34044 28
27236 34041 34045 28
27237 34046 34047 28
27238 34046 34048 28
27239 34046 34049 28
27240 34046 34050 28
27241 34051 34052 28
27242 34051 34053 28
27243 34051 34054 28
27244 34051 34055 28
27245 34056 34057 28
27246 34056 34058 28
27247 34056 34059 28
27248 34056 34060 28
27249 34061 34062 28
27250 34061 34063 28
27251 34061 34064 28
27252 34061 34065 28
27253 34066 34067 28
27254 34066 34068 28
27255 34066 34069 28
27256 34066 34070 28
27257 34071 34072 28
27258 34071 34073 28
27259 34071 34074 28
27260 34071 34075 28
27261 34076 34077 28
27262 34076 34078 28
27263 34076 34079 28
27264 34076 34080 28
27265 34081 34082 28
27266 34081 34083 28
27267 34081 34084 28
27268 34081 34085 28
27269 34086 34087 28
27270 34086 34088 28
27271 34086 34089 28
27272 34086 34090 28
27273 34091 34092 28
27274 34091 34093 28
27275 34091 34094 28
27276 34091 34095 28
27277 34096 34097 28
27278 34096 34098 28
27279 34096 34099 28
27280 34096 34100 28
27281 34101 34102 28
27282 34101 34103 28
27283 34101 34104 28
27284 34101 34105 28
27285 34106 34107 28
27286 34106 34108 28
27287 34106 34109 28
27288 34106 34110 28
27289 34111 34112 28
27290 34111 34113 28
27291 34111 34114 28
27292 34111 34115 28
27293 34116 34117 28
27294 34116 34118 28
27295 34116 34119 28
27296 34116 34120 28
27297 34121 34122 28
27298 34121 34123 28
27299 34121 34124 28
27300 34121 34125 28
27301 34126 34127 28
27302 34126 34128 28
27303 34126 34129 28
27304 34126 34130 28
27305 34131 34132 28
27306 34131 34133 28
27307 34131 34134 28
27308 34131 34135 28
27309 34136 34137 28
27310 34136 34138 28
27311 34136 34139 28
27312 34136 34140 28
27313 34141 34142 28
27314 34141 34143 28
27315 34141 34144 28
27316 34141 34145 28
27317 34146 34147 28
27318 34146 34148 28
27319 34146 34149 28
27320 34146 34150 28
27321 34151 34152 28
27322 34151 34153 28
27323 34151 34154 28
27324 34151 34155 28
27325 34156 34157 28
27326 34156 34158 28
27327 34156 34159 28
27328 34156 34160 28
27329 34161 34162 28
27330 34161 34163 28
27331 34161 34164 28
27332 34161 34165 28
27333 34166 34167 28
27334 34166 34168 28
27335 34166 34169 28
27336 34166 34170 28
27337 34171 34172 28
27338 34171 34173 28
27339 34171 34174 28
27340 34171 34175 28
27341 34176 34177 28
27342 34176 34178 28
27343 34176 34179 28
27344 34176 34180 28
27345 34181 34182 28
27346 34181 34183 28
27347 34181 34184 28
27348 34181 34185 28
27349 34186 34187 28
27350 34186 34188 28
27351 34186 34189 28
27352 34186 34190 28
27353 34191 34192 28
27354 34191 34193 28
27355 34191 34194 28
27356 34191 34195 28
27357 34196 34197 28
27358 34196 34198 28
27359 34196 34199 28
27360 34196 34200 28
27361 34201 34202 28
27362 34201 34203 28
27363 34201 34204 28
27364 34201 34205 28
27365 34206 34207 28
27366 34206 34208 28
27367 34206 34209 28
27368 34206 34210 28
27369 34211 34212 28
27370 34211 34213 28
27371 34211 34214 28
27372 34211 34215 28
27373 34216 34217 28
27374 34216 34218 28
27375 34216 34219 28
27376 34216 34220 28
27377 34221 34222 28
27378 34221 34223 28
27379 34221 34224 28
27380 34221 34225 28
27381 34226 34227 28
27382 34226 34228 28
27383 34226 34229 28
27384 34226 34230 28
27385 34231 34232 28
27386 34231 34233 28
27387 34231 34234 28
27388 34231 34235 28
27389 34236 34237 28
27390 34236 34238 28
27391 34236 34239 28
27392 34236 34240 28
27393 34241 34242 28
27394 34241 34243 28
27395 34241 34244 28
27396 34241 34245 28
27397 34246 34247 28
27398 34246 34248 28
27399 34246 34249 28
27400 34246 34250 28
27401 34251 34252 28
27402 34251 34253 28
27403 34251 34254 28
27404 34251 34255 28
27405 34256 34257 28
27406 34256 34258 28
27407 34256 34259 28
27408 34256 34260 28
27409 34261 34262 28
27410 34261 34263 28
27411 34261 34264 28
27412 34261 34265 28
27413 34266 34267 28
27414 34266 34268 28
27415 34266 34269 28
27416 34266 34270 28
27417 34271 34272 28
27418 34271 34273 28
27419 34271 34274 28
27420 34271 34275 28
27421 34276 34277 28
27422 34276 34278 28
27423 34276 34279 28
27424 34276 34280 28
27425 34281 34282 28
27426 34281 34283 28
27427 34281 34284 28
27428 34281 34285 28
27429 34286 34287 28
27430 34286 34288 28
27431 34286 34289 28
27432 34286 34290 28
27433 34291 34292 28
27434 34291 34293 28
27435 34291 34294 28
27436 34291 34295 28
27437 34296 34297 28
27438 34296 34298 28
27439 34296 34299 28
27440 34296 34300 28
27441 34301 34302 28
27442 34301 34303 28
27443 34301 34304 28
27444 34301 34305 28
27445 34306 34307 28
27446 34306 34308 28
27447 34306 34309 28
27448 34306 34310 28
27449 34311 34312 28
27450 34311 34313 28
27451 34311 34314 28
27452 34311 34315 28
27453 34316 34317 28
27454 34316 34318 28
27455 34316 34319 28
27456 34316 34320 28
27457 34321 34322 28
27458 34321 34323 28
27459 34321 34324 28
27460 34321 34325 28
27461 34326 34327 28
27462 34326 34328 28
27463 34326 34329 28
27464 34326 34330 28
27465 34331 34332 28
27466 34331 34333 28
27467 34331 34334 28
27468 34331 34335 28
27469 34336 34337 28
27470 34336 34338 28
27471 34336 34339 28
27472 34336 34340 28
27473 34341 34342 28
27474 34341 34343 28
27475 34341 34344 28
27476 34341 34345 28
27477 34346 34347 28
27478 34346 34348 28
27479 34346 34349 28
27480 34346 34350 28
27481 34351 34352 28
27482 34351 34353 28
27483 34351 34354 28
27484 34351 34355 28
27485 34356 34357 28
27486 34356 34358 28
27487 34356 34359 28
27488 34356 34360 28
27489 34361 34362 28
27490 34361 34363 28
27491 34361 34364 28
27492 34361 34365 28
27493 34366 34367 28
27494 34366 34368 28
27495 34366 34369 28
27496 34366 34370 28
27497 34371 34372 28
27498 34371 34373 28
27499 34371 34374 28
27500 34371 34375 28
27501 34376 34377 28
27502 34376 34378 28
27503 34376 34379 28
27504 34376 34380 28
27505 34381 34382 28
27506 34381 34383 28
27507 34381 34384 28
27508 34381 34385 28
27509 34386 34387 28
27510 34386 34388 28
27511 34386 34389 28
27512 34386 34390 28
27513 34391 34392 28
27514 34391 34393 28
27515 34391 34394 28
27516 34391 34395 28
27517 34396 34397 28
27518 34396 34398 28
27519 34396 34399 28
27520 34396 34400 28
27521 34401 34402 28
27522 34401 34403 28
27523 34401 34404 28
27524 34401 34405 28
27525 34406 34407 28
27526 34406 34408 28
27527 34406 34409 28
27528 34406 34410 28
27529 34411 34412 28
27530 34411 34413 28
27531 34411 34414 28
27532 34411 34415 28
27533 34416 34417 28
27534 34416 34418 28
27535 34416 34419 28
27536 34416 34420 28
27537 34421 34422 28
27538 34421 34423 28
27539 34421 34424 28
27540 34421 34425 28
27541 34426 34427 28
27542 34426 34428 28
27543 34426 34429 28
27544 34426 34430 28
27545 34431 34432 28
27546 34431 34433 28
27547 34431 34434 28
27548 34431 34435 28
27549 34436 34437 28
27550 34436 34438 28
27551 34436 34439 28
27552 34436 34440 28
27553 34441 34442 28
27554 34441 34443 28
27555 34441 34444 28
27556 34441 34445 28
27557 34446 34447 28
27558 34446 34448 28
27559 34446 34449 28
27560 34446 34450 28
27561 34451 34452 28
27562 34451 34453 28
27563 34451 34454 28
27564 34451 34455 28
27565 34456 34457 28
27566 34456 34458 28
27567 34456 34459 28
27568 34456 34460 28
27569 34461 34462 28
27570 34461 34463 28
27571 34461 34464 28
27572 34461 34465 28
27573 34466 34467 28
27574 34466 34468 28
27575 34466 34469 28
27576 34466 34470 28
27577 34471 34472 28
27578 34471 34473 28
27579 34471 34474 28
27580 34471 34475 28
27581 34476 34477 28
27582 34476 34478 28
27583 34476 34479 28
27584 34476 34480 28
27585 34481 34482 28
27586 34481 34483 28
27587 34481 34484 28
27588 34481 34485 28
27589 34486 34487 28
27590 34486 34488 28
27591 34486 34489 28
27592 34486 34490 28
27593 34491 34492 28
27594 34491 34493 28
27595 34491 34494 28
27596 34491 34495 28
27597 34496 34497 28
27598 34496 34498 28
27599 34496 34499 28
27600 34496 34500 28
27601 34501 34502 28
27602 34501 34503 28
27603 34501 34504 28
27604 34501 34505 28
27605 34506 34507 28
27606 34506 34508 28
27607 34506 34509 28
27608 34506 34510 28
27609 34511 34512 28
27610 34511 34513 28
27611 34511 34514 28
27612 34511 34515 28
27613 34516 34517 28
27614 34516 34518 28
27615 34516 34519 28
27616 34516 34520 28
27617 34521 34522 28
27618 34521 34523 28
27619 34521 34524 28
27620 34521 34525 28
27621 34526 34527 28
27622 34526 34528 28
27623 34526 34529 28
27624 34526 34530 28
27625 34531 34532 28
27626 34531 34533 28
27627 34531 34534 28
27628 34531 34535 28
27629 34536 34537 28
27630 34536 34538 28
27631 34536 34539 28
27632 34536 34540 28
27633 34541 34542 28
27634 34541 34543 28
27635 34541 34544 28
27636 34541 34545 28
27637 34546 34547 28
27638 34546 34548 28
27639 34546 34549 28
27640 34546 34550 28
27641 34551 34552 28
27642 34551 34553 28
27643 34551 34554 28
27644 34551 34555 28
27645 34556 34557 28
27646 34556 34558 28
27647 34556 34559 28
27648 34556 34560 28
27649 34561 34562 28
27650 34561 34563 28
27651 34561 34564 28
27652 34561 34565 28
27653 34566 34567 28
27654 34566 34568 28
27655 34566 34569 28
27656 34566 34570 28
27657 34571 34572 28
27658 34571 34573 28
27659 34571 34574 28
27660 34571 34575 28
27661 34576 34577 28
27662 34576 34578 28
27663 34576 34579 28
27664 34576 34580 28
27665 34581 34582 28
27666 34581 34583 28
27667 34581 34584 28
27668 34581 34585 28
27669 34586 34587 28
27670 34586 34588 28
27671 34586 34589 28
27672 34586 34590 28
27673 34591 34592 28
27674 34591 34593 28
27675 34591 34594 28
27676 34591 34595 28
27677 34596 34597 28
27678 34596 34598 28
27679 34596 34599 28
27680 34596 34600 28
27681 34601 34602 28
27682 34601 34603 28
27683 34601 34604 28
27684 34601 34605 28
27685 34606 34607 28
27686 34606 34608 28
27687 34606 34609 28
27688 34606 34610 28
27689 34611 34612 28
27690 34611 34613 28
27691 34611 34614 28
27692 34611 34615 28
27693 34616 34617 28
27694 34616 34618 28
27695 34616 34619 28
27696 34616 34620 28
27697 34621 34622 28
27698 34621 34623 28
27699 34621 34624 28
27700 34621 34625 28
27701 34626 34627 28
27702 34626 34628 28
27703 34626 34629 28
27704 34626 34630 28
27705 34631 34632 28
27706 34631 34633 28
27707 34631 34634 28
27708 34631 34635 28
27709 34636 34637 28
27710 34636 34638 28
27711 34636 34639 28
27712 34636 34640 28
27713 34641 34642 28
27714 34641 34643 28
27715 34641 34644 28
27716 34641 34645 28
27717 34646 34647 28
27718 34646 34648 28
27719 34646 34649 28
27720 34646 34650 28
27721 34651 34652 28
27722 34651 34653 28
27723 34651 34654 28
27724 34651 34655 28
27725 34656 34657 28
27726 34656 34658 28
27727 34656 34659 28
27728 34656 34660 28
27729 34661 34662 28
27730 34661 34663 28
27731 34661 34664 28
27732 34661 34665 28
27733 34666 34667 28
27734 34666 34668 28
27735 34666 34669 28
27736 34666 34670 28
27737 34671 34672 28
27738 34671 34673 28
27739 34671 34674 28
27740 34671 34675 28
27741 34676 34677 28
27742 34676 34678 28
27743 34676 34679 28
27744 34676 34680 28
27745 34681 34682 28
27746 34681 34683 28
27747 34681 34684 28
27748 34681 34685 28
27749 34686 34687 28
27750 34686 34688 28
27751 34686 34689 28
27752 34686 34690 28
27753 34691 34692 28
27754 34691 34693 28
27755 34691 34694 28
27756 34691 34695 28
27757 34696 34697 28
27758 34696 34698 28
27759 34696 34699 28
27760 34696 34700 28
27761 34701 34702 28
27762 34701 34703 28
27763 34701 34704 28
27764 34701 34705 28
27765 34706 34707 28
27766 34706 34708 28
27767 34706 34709 28
27768 34706 34710 28
27769 34711 34712 28
27770 34711 34713 28
27771 34711 34714 28
27772 34711 34715 28
27773 34716 34717 28
27774 34716 34718 28
27775 34716 34719 28
27776 34716 34720 28
27777 34721 34722 28
27778 34721 34723 28
27779 34721 34724 28
27780 34721 34725 28
27781 34726 34727 28
27782 34726 34728 28
27783 34726 34729 28
27784 34726 34730 28
27785 34731 34732 28
27786 34731 34733 28
27787 34731 34734 28
27788 34731 34735 28
27789 34736 34737 28
27790 34736 34738 28
27791 34736 34739 28
27792 34736 34740 28
27793 34741 34742 28
27794 34741 34743 28
27795 34741 34744 28
27796 34741 34745 28
27797 34746 34747 28
27798 34746 34748 28
27799 34746 34749 28
27800 34746 34750 28
27801 34751 34752 28
27802 34751 34753 28
27803 34751 34754 28
27804 34751 34755 28
27805 34756 34757 28
27806 34756 34758 28
27807 34756 34759 28
27808 34756 34760 28
27809 34761 34762 28
27810 34761 34763 28
27811 34761 34764 28
27812 34761 34765 28
27813 34766 34767 28
27814 34766 34768 28
27815 34766 34769 28
27816 34766 34770 28
27817 34771 34772 28
27818 34771 34773 28
27819 34771 34774 28
27820 34771 34775 28
27821 34776 34777 28
27822 34776 34778 28
27823 34776 34779 28
27824 34776 34780 28
27825 34781 34782 28
27826 34781 34783 28
27827 34781 34784 28
27828 34781 34785 28
27829 34786 34787 28
27830 34786 34788 28
27831 34786 34789 28
27832 34786 34790 28
27833 34791 34792 28
27834 34791 34793 28
27835 34791 34794 28
27836 34791 34795 28
27837 34796 34797 28
27838 34796 34798 28
27839 34796 34799 28
27840 34796 34800 28
27841 34801 34802 28
27842 34801 34803 28
27843 34801 34804 28
27844 34801 34805 28
27845 34806 34807 28
27846 34806 34808 28
27847 34806 34809 28
27848 34806 34810 28
27849 34811 34812 28
27850 34811 34813 28
27851 34811 34814 28
27852 34811 34815 28
27853 34816 34817 28
27854 34816 34818 28
27855 34816 34819 28
27856 34816 34820 28
27857 34821 34822 28
27858 34821 34823 28
27859 34821 34824 28
27860 34821 34825 28
27861 34826 34827 28
27862 34826 34828 28
27863 34826 34829 28
27864 34826 34830 28
27865 34831 34832 28
27866 34831 34833 28
27867 34831 34834 28
27868 34831 34835 28
27869 34836 34837 28
27870 34836 34838 28
27871 34836 34839 28
27872 34836 34840 28
27873 34841 34842 28
27874 34841 34843 28
27875 34841 34844 28
27876 34841 34845 28
27877 34846 34847 28
27878 34846 34848 28
27879 34846 34849 28
27880 34846 34850 28
27881 34851 34852 28
27882 34851 34853 28
27883 34851 34854 28
27884 34851 34855 28
27885 34856 34857 28
27886 34856 34858 28
27887 34856 34859 28
27888 34856 34860 28
27889 34861 34862 28
27890 34861 34863 28
27891 34861 34864 28
27892 34861 34865 28
27893 34866 34867 28
27894 34866 34868 28
27895 34866 34869 28
27896 34866 34870 28
27897 34871 34872 28
27898 34871 34873 28
27899 34871 34874 28
27900 34871 34875 28
27901 34876 34877 28
27902 34876 34878 28
27903 34876 34879 28
27904 34876 34880 28
27905 34881 34882 28
27906 34881 34883 28
27907 34881 34884 28
27908 34881 34885 28
27909 34886 34887 28
27910 34886 34888 28
27911 34886 34889 28
27912 34886 34890 28
27913 34891 34892 28
27914 34891 34893 28
27915 34891 34894 28
27916 34891 34895 28
27917 34896 34897 28
27918 34896 34898 28
27919 34896 34899 28
27920 34896 34900 28
27921 34901 34902 28
27922 34901 34903 28
27923 34901 34904 28
27924 34901 34905 28
27925 34906 34907 28
27926 34906 34908 28
27927 34906 34909 28
27928 34906 34910 28
27929 34911 34912 28
27930 34911 34913 28
27931 34911 34914 28
27932 34911 34915 28
27933 34916 34917 28
27934 34916 34918 28
27935 34916 34919 28
27936 34916 34920 28
27937 34921 34922 28
27938 34921 34923 28
27939 34921 34924 28
27940 34921 34925 28
27941 34926 34927 28
27942 34926 34928 28
27943 34926 34929 28
27944 34926 34930 28
27945 34931 34932 28
27946 34931 34933 28
27947 34931 34934 28
27948 34931 34935 28
27949 34936 34937 28
27950 34936 34938 28
27951 34936 34939 28
27952 34936 34940 28
27953 34941 34942 28
27954 34941 34943 28
27955 34941 34944 28
27956 34941 34945 28
27957 34946 34947 28
27958 34946 34948 28
27959 34946 34949 28
27960 34946 34950 28
27961 34951 34952 28
27962 34951 34953 28
27963 34951 34954 28
27964 34951 34955 28
27965 34956 34957 28
27966 34956 34958 28
27967 34956 34959 28
27968 34956 34960 28
27969 34961 34962 28
27970 34961 34963 28
27971 34961 34964 28
27972 34961 34965 28
27973 34966 34967 28
27974 34966 34968 28
27975 34966 34969 28
27976 34966 34970 28
27977 34971 34972 28
27978 34971 34973 28
27979 34971 34974 28
27980 34971 34975 28
27981 34976 34977 28
27982 34976 34978 28
27983 34976 34979 28
27984 34976 34980 28
27985 34981 34982 28
27986 34981 34983 28
27987 34981 34984 28
27988 34981 34985 28
27989 34986 34987 28
27990 34986 34988 28
27991 34986 34989 28
27992 34986 34990 28
27993 34991 34992 28
27994 34991 34993 28
27995 34991 34994 28
27996 34991 34995 28
27997 34996 34997 28
27998 34996 34998 28
27999 34996 34999 28
28000 34996 35000 28
28001 35001 35002 28
28002 35001 35003 28
28003 35001 35004 28
28004 35001 35005 28
28005 35006 35007 28
28006 35006 35008 28
28007 35006 35009 28
28008 35006 35010 28
28009 35011 35012 28
28010 35011 35013 28
28011 35011 35014 28
28012 35011 35015 28
28013 35016 35017 28
28014 35016 35018 28
28015 35016 35019 28
28016 35016 35020 28
28017 35021 35022 28
28018 35021 35023 28
28019 35021 35024 28
28020 35021 35025 28
28021 35026 35027 28
28022 35026 35028 28
28023 35026 35029 28
28024 35026 35030 28
28025 35031 35032 28
28026 35031 35033 28
28027 35031 35034 28
28028 35031 35035 28
28029 35036 35037 28
28030 35036 35038 28
28031 35036 35039 28
28032 35036 35040 28
28033 35041 35042 28
28034 35041 35043 28
28035 35041 35044 28
28036 35041 35045 28
28037 35046 35047 28
28038 35046 35048 28
28039 35046 35049 28
28040 35046 35050 28
28041 35051 35052 28
28042 35051 35053 28
28043 35051 35054 28
28044 35051 35055 28
28045 35056 35057 28
28046 35056 35058 28
28047 35056 35059 28
28048 35056 35060 28
28049 35061 35062 28
28050 35061 35063 28
28051 35061 35064 28
28052 35061 35065 28
28053 35066 35067 28
28054 35066 35068 28
28055 35066 35069 28
28056 35066 35070 28
28057 35071 35072 28
28058 35071 35073 28
28059 35071 35074 28
28060 35071 35075 28
28061 35076 35077 28
28062 35076 35078 28
28063 35076 35079 28
28064 35076 35080 28
28065 35081 35082 28
28066 35081 35083 28
28067 35081 35084 28
28068 35081 35085 28
28069 35086 35087 28
28070 35086 35088 28
28071 35086 35089 28
28072 35086 35090 28
28073 35091 35092 28
28074 35091 35093 28
28075 35091 35094 28
28076 35091 35095 28
28077 35096 35097 28
28078 35096 35098 28
28079 35096 35099 28
28080 35096 35100 28
28081 35101 35102 28
28082 35101 35103 28
28083 35101 35104 28
28084 35101 35105 28
28085 35106 35107 28
28086 35106 35108 28
28087 35106 35109 28
28088 35106 35110 28
28089 35111 35112 28
28090 35111 35113 28
28091 35111 35114 28
28092 35111 35115 28
28093 35116 35117 28
28094 35116 35118 28
28095 35116 35119 28
28096 35116 35120 28
28097 35121 35122 28
28098 35121 35123 28
28099 35121 35124 28
28100 35121 35125 28
28101 35126 35127 28
28102 35126 35128 28
28103 35126 35129 28
28104 35126 35130 28
28105 35131 35132 28
28106 35131 35133 28
28107 35131 35134 28
28108 35131 35135 28
28109 35136 35137 28
28110 35136 35138 28
28111 35136 35139 28
28112 35136 35140 28
28113 35141 35142 28
28114 35141 35143 28
28115 35141 35144 28
28116 35141 35145 28
28117 35146 35147 28
28118 35146 35148 28
28119 35146 35149 28
28120 35146 35150 28
28121 35151 35152 28
28122 35151 35153 28
28123 35151 35154 28
28124 35151 35155 28
28125 35156 35157 28
28126 35156 35158 28
28127 35156 35159 28
28128 35156 35160 28
28129 35161 35162 28
28130 35161 35163 28
28131 35161 35164 28
28132 35161 35165 28
28133 35166 35167 28
28134 35166 35168 28
28135 35166 35169 28
28136 35166 35170 28
28137 35171 35172 28
28138 35171 35173 28
28139 35171 35174 28
28140 35171 35175 28
28141 35176 35177 28
28142 35176 35178 28
28143 35176 35179 28
28144 35176 35180 28
28145 35181 35182 28
28146 35181 35183 28
28147 35181 35184 28
28148 35181 35185 28
28149 35186 35187 28
28150 35186 35188 28
28151 35186 35189 28
28152 35186 35190 28
28153 35191 35192 28
28154 35191 35193 28
28155 35191 35194 28
28156 35191 35195 28
28157 35196 35197 28
28158 35196 35198 28
28159 35196 35199 28
28160 35196 35200 28
28161 35201 35202 28
28162 35201 35203 28
28163 35201 35204 28
28164 35201 35205 28
28165 35206 35207 28
28166 35206 35208 28
28167 35206 35209 28
28168 35206 35210 28
28169 35211 35212 28
28170 35211 35213 28
28171 35211 35214 28
28172 35211 35215 28
28173 35216 35217 28
28174 35216 35218 28
28175 35216 35219 28
28176 35216 35220 28
28177 35221 35222 28
28178 35221 35223 28
28179 35221 35224 28
28180 35221 35225 28
28181 35226 35227 28
28182 35226 35228 28
28183 35226 35229 28
28184 35226 35230 28
28185 35231 35232 28
28186 35231 35233 28
28187 35231 35234 28
28188 35231 35235 28
28189 35236 35237 28
28190 35236 35238 28
28191 35236 35239 28
28192 35236 35240 28
28193 35241 35242 28
28194 35241 35243 28
28195 35241 35244 28
28196 35241 35245 28
28197 35246 35247 28
28198 35246 35248 28
28199 35246 35249 28
28200 35246 35250 28
28201 35251 35252 28
28202 35251 35253 28
28203 35251 35254 28
28204 35251 35255 28
28205 35256 35257 28
28206 35256 35258 28
28207 35256 35259 28
28208 35256 35260 28
28209 35261 35262 28
28210 35261 35263 28
28211 35261 35264 28
28212 35261 35265 28
28213 35266 35267 28
28214 35266 35268 28
28215 35266 35269 28
28216 35266 35270 28
28217 35271 35272 28
28218 35271 35273 28
28219 35271 35274 28
28220 35271 35275 28
28221 35276 35277 28
28222 35276 35278 28
28223 35276 35279 28
28224 35276 35280 28
28225 35281 35282 28
28226 35281 35283 28
28227 35281 35284 28
28228 35281 35285 28
28229 35286 35287 28
28230 35286 35288 28
28231 35286 35289 28
28232 35286 35290 28
28233 35291 35292 28
28234 35291 35293 28
28235 35291 35294 28
28236 35291 35295 28
28237 35296 35297 28
28238 35296 35298 28
28239 35296 35299 28
28240 35296 35300 28
28241 35301 35302 28
28242 35301 35303 28
28243 35301 35304 28
28244 35301 35305 28
28245 35306 35307 28
28246 35306 35308 28
28247 35306 35309 28
28248 35306 35310 28
28249 35311 35312 28
28250 35311 35313 28
28251 35311 35314 28
28252 35311 35315 28
28253 35316 35317 28
28254 35316 35318 28
28255 35316 35319 28
28256 35316 35320 28
28257 35321 35322 28
28258 35321 35323 28
28259 35321 35324 28
28260 35321 35325 28
28261 35326 35327 28
28262 35326 35328 28
28263 35326 35329 28
28264 35326 35330 28
28265 35331 35332 28
28266 35331 35333 28
28267 35331 35334 28
28268 35331 35335 28
28269 35336 35337 28
28270 35336 35338 28
28271 35336 35339 28
28272 35336 35340 28
28273 35341 35342 28
28274 35341 35343 28
28275 35341 35344 28
28276 35341 35345 28
28277 35346 35347 28
28278 35346 35348 28
28279 35346 35349 28
28280 35346 35350 28
28281 35351 35352 28
28282 35351 35353 28
28283 35351 35354 28
28284 35351 35355 28
28285 35356 35357 28
28286 35356 35358 28
28287 35356 35359 28
28288 35356 35360 28
28289 35361 35362 28
28290 35361 35363 28
28291 35361 35364 28
28292 35361 35365 28
28293 35366 35367 28
28294 35366 35368 28
28295 35366 35369 28
28296 35366 35370 28
28297 35371 35372 28
28298 35371 35373 28
28299 35371 35374 28
28300 35371 35375 28
28301 35376 35377 28
28302 35376 35378 28
28303 35376 35379 28
28304 35376 35380 28
28305 35381 35382 28
28306 35381 35383 28
28307 35381 35384 28
28308 35381 35385 28
28309 35386 35387 28
28310 35386 35388 28
28311 35386 35389 28
28312 35386 35390 28
28313 35391 35392 28
28314 35391 35393 28
28315 35391 35394 28
28316 35391 35395 28
28317 35396 35397 28
28318 35396 35398 28
28319 35396 35399 28
28320 35396 35400 28
28321 35401 35402 28
28322 35401 35403 28
28323 35401 35404 28
28324 35401 35405 28
28325 35406 35407 28
28326 35406 35408 28
28327 35406 35409 28
28328 35406 35410 28
28329 35411 35412 28
28330 35411 35413 28
28331 35411 35414 28
28332 35411 35415 28
28333 35416 35417 28
28334 35416 35418 28
28335 35416 35419 28
28336 35416 35420 28
28337 35421 35422 28
28338 35421 35423 28
28339 35421 35424 28
28340 35421 35425 28
28341 35426 35427 28
28342 35426 35428 28
28343 35426 35429 28
28344 35426 35430 28
28345 35431 35432 28
28346 35431 35433 28
28347 35431 35434 28
28348 35431 35435 28
28349 35436 35437 28
28350 35436 35438 28
28351 35436 35439 28
28352 35436 35440 28
28353 35441 35442 28
28354 35441 35443 28
28355 35441 35444 28
28356 35441 35445 28
28357 35446 35447 28
28358 35446 35448 28
28359 35446 35449 28
28360 35446 35450 28
28361 35451 35452 28
28362 35451 35453 28
28363 35451 35454 28
28364 35451 35455 28
28365 35456 35457 28
28366 35456 35458 28
28367 35456 35459 28
28368 35456 35460 28
28369 35461 35462 28
28370 35461 35463 28
28371 35461 35464 28
28372 35461 35465 28
28373 35466 35467 28
28374 35466 35468 28
28375 35466 35469 28
28376 35466 35470 28
28377 35471 35472 28
28378 35471 35473 28
28379 35471 35474 28
28380 35471 35475 28
28381 35476 35477 28
28382 35476 35478 28
28383 35476 35479 28
28384 35476 35480 28
28385 35481 35482 28
28386 35481 35483 28
28387 35481 35484 28
28388 35481 35485 28
28389 35486 35487 28
28390 35486 35488 28
28391 35486 35489 28
28392 35486 35490 28
28393 35491 35492 28
28394 35491 35493 28
28395 35491 35494 28
28396 35491 35495 28
28397 35496 35497 28
28398 35496 35498 28
28399 35496 35499 28
28400 35496 35500 28
28401 35501 35502 28
28402 35501 35503 28
28403 35501 35504 28
28404 35501 35505 28
28405 35506 35507 28
28406 35506 35508 28
28407 35506 35509 28
28408 35506 35510 28
28409 35511 35512 28
28410 35511 35513 28
28411 35511 35514 28
28412 35511 35515 28
28413 35516 35517 28
28414 35516 35518 28
28415 35516 35519 28
28416 35516 35520 28
28417 35521 35522 28
28418 35521 35523 28
28419 35521 35524 28
28420 35521 35525 28
28421 35526 35527 28
28422 35526 35528 28
28423 35526 35529 28
28424 35526 35530 28
28425 35531 35532 28
28426 35531 35533 28
28427 35531 35534 28
28428 35531 35535 28
28429 35536 35537 28
28430 35536 35538 28
28431 35536 35539 28
28432 35536 35540 28
28433 35541 35542 28
28434 35541 35543 28
28435 35541 35544 28
28436 35541 35545 28
28437 35546 35547 28
28438 35546 35548 28
28439 35546 35549 28
28440 35546 35550 28
28441 35551 35552 28
28442 35551 35553 28
28443 35551 35554 28
28444 35551 35555 28
28445 35556 35557 28
28446 35556 35558 28
28447 35556 35559 28
28448 35556 35560 28
28449 35561 35562 28
28450 35561 35563 28
28451 35561 35564 28
28452 35561 35565 28
28453 35566 35567 28
28454 35566 35568 28
28455 35566 35569 28
28456 35566 35570 28
28457 35571 35572 28
28458 35571 35573 28
28459 35571 35574 28
28460 35571 35575 28
28461 35576 35577 28
28462 35576 35578 28
28463 35576 35579 28
28464 35576 35580 28
28465 35581 35582 28
28466 35581 35583 28
28467 35581 35584 28
28468 35581 35585 28
28469 35586 35587 28
28470 35586 35588 28
28471 35586 35589 28
28472 35586 35590 28
28473 35591 35592 28
28474 35591 35593 28
28475 35591 35594 28
28476 35591 35595 28
28477 35596 35597 28
28478 35596 35598 28
28479 35596 35599 28
28480 35596 35600 28
28481 35601 35602 28
28482 35601 35603 28
28483 35601 35604 28
28484 35601 35605 28
28485 35606 35607 28
28486 35606 35608 28
28487 35606 35609 28
28488 35606 35610 28
28489 35611 35612 28
28490 35611 35613 28
28491 35611 35614 28
28492 35611 35615 28
28493 35616 35617 28
28494 35616 35618 28
28495 35616 35619 28
28496 35616 35620 28
28497 35621 35622 28
28498 35621 35623 28
28499 35621 35624 28
28500 35621 35625 28
28501 35626 35627 28
28502 35626 35628 28
28503 35626 35629 28
28504 35626 35630 28
28505 35631 35632 28
28506 35631 35633 28
28507 35631 35634 28
28508 35631 35635 28
28509 35636 35637 28
28510 35636 35638 28
28511 35636 35639 28
28512 35636 35640 28
28513 35641 35642 28
28514 35641 35643 28
28515 35641 35644 28
28516 35641 35645 28
28517 35646 35647 28
28518 35646 35648 28
28519 35646 35649 28
28520 35646 35650 28
28521 35651 35652 28
28522 35651 35653 28
28523 35651 35654 28
28524 35651 35655 28
28525 35656 35657 28
28526 35656 35658 28
28527 35656 35659 28
28528 35656 35660 28
28529 35661 35662 28
28530 35661 35663 28
28531 35661 35664 28
28532 35661 35665 28
28533 35666 35667 28
28534 35666 35668 28
28535 35666 35669 28
28536 35666 35670 28
28537 35671 35672 28
28538 35671 35673 28
28539 35671 35674 28
28540 35671 35675 28
28541 35676 35677 28
28542 35676 35678 28
28543 35676 35679 28
28544 35676 35680 28
28545 35681 35682 28
28546 35681 35683 28
28547 35681 35684 28
28548 35681 35685 28
28549 35686 35687 28
28550 35686 35688 28
28551 35686 35689 28
28552 35686 35690 28
28553 35691 35692 28
28554 35691 35693 28
28555 35691 35694 28
28556 35691 35695 28
28557 35696 35697 28
28558 35696 35698 28
28559 35696 35699 28
28560 35696 35700 28
28561 35701 35702 28
28562 35701 35703 28
28563 35701 35704 28
28564 35701 35705 28
28565 35706 35707 28
28566 35706 35708 28
28567 35706 35709 28
28568 35706 35710 28
28569 35711 35712 28
28570 35711 35713 28
28571 35711 35714 28
28572 35711 35715 28
28573 35716 35717 28
28574 35716 35718 28
28575 35716 35719 28
28576 35716 35720 28
28577 35721 35722 28
28578 35721 35723 28
28579 35721 35724 28
28580 35721 35725 28
28581 35726 35727 28
28582 35726 35728 28
28583 35726 35729 28
28584 35726 35730 28
28585 35731 35732 28
28586 35731 35733 28
28587 35731 35734 28
28588 35731 35735 28
28589 35736 35737 28
28590 35736 35738 28
28591 35736 35739 28
28592 35736 35740 28
28593 35741 35742 28
28594 35741 35743 28
28595 35741 35744 28
28596 35741 35745 28
28597 35746 35747 28
28598 35746 35748 28
28599 35746 35749 28
28600 35746 35750 28
28601 35751 35752 28
28602 35751 35753 28
28603 35751 35754 28
28604 35751 35755 28
28605 35756 35757 28
28606 35756 35758 28
28607 35756 35759 28
28608 35756 35760 28
28609 35761 35762 28
28610 35761 35763 28
28611 35761 35764 28
28612 35761 35765 28
28613 35766 35767 28
28614 35766 35768 28
28615 35766 35769 28
28616 35766 35770 28
28617 35771 35772 28
28618 35771 35773 28
28619 35771 35774 28
28620 35771 35775 28
28621 35776 35777 28
28622 35776 35778 28
28623 35776 35779 28
28624 35776 35780 28
28625 35781 35782 28
28626 35781 35783 28
28627 35781 35784 28
28628 35781 35785 28
28629 35786 35787 28
28630 35786 35788 28
28631 35786 35789 28
28632 35786 35790 28
28633 35791 35792 28
28634 35791 35793 28
28635 35791 35794 28
28636 35791 35795 28
28637 35796 35797 28
28638 35796 35798 28
28639 35796 35799 28
28640 35796 35800 28
28641 35801 35802 28
28642 35801 35803 28
28643 35801 35804 28
28644 35801 35805 28
28645 35806 35807 28
28646 35806 35808 28
28647 35806 35809 28
28648 35806 35810 28
28649 35811 35812 28
28650 35811 35813 28
28651 35811 35814 28
28652 35811 35815 28
28653 35816 35817 28
28654 35816 35818 28
28655 35816 35819 28
28656 35816 35820 28
28657 35821 35822 28
28658 35821 35823 28
28659 35821 35824 28
28660 35821 35825 28
28661 35826 35827 28
28662 35826 35828 28
28663 35826 35829 28
28664 35826 35830 28
28665 35831 35832 28
28666 35831 35833 28
28667 35831 35834 28
28668 35831 35835 28
28669 35836 35837 28
28670 35836 35838 28
28671 35836 35839 28
28672 35836 35840 28
28673 35841 35842 28
28674 35841 35843 28
28675 35841 35844 28
28676 35841 35845 28
28677 35846 35847 28
28678 35846 35848 28
28679 35846 35849 28
28680 35846 35850 28
28681 35851 35852 28
28682 35851 35853 28
28683 35851 35854 28
28684 35851 35855 28
28685 35856 35857 28
28686 35856 35858 28
28687 35856 35859 28
28688 35856 35860 28
28689 35861 35862 28
28690 35861 35863 28
28691 35861 35864 28
28692 35861 35865 28
28693 35866 35867 28
28694 35866 35868 28
28695 35866 35869 28
28696 35866 35870 28
28697 35871 35872 28
28698 35871 35873 28
28699 35871 35874 28
28700 35871 35875 28
28701 35876 35877 28
28702 35876 35878 28
28703 35876 35879 28
28704 35876 35880 28
28705 35881 35882 28
28706 35881 35883 28
28707 35881 35884 28
28708 35881 35885 28
28709 35886 35887 28
28710 35886 35888 28
28711 35886 35889 28
28712 35886 35890 28
28713 35891 35892 28
28714 35891 35893 28
28715 35891 35894 28
28716 35891 35895 28
28717 35896 35897 28
28718 35896 35898 28
28719 35896 35899 28
28720 35896 35900 28
28721 35901 35902 28
28722 35901 35903 28
28723 35901 35904 28
28724 35901 35905 28
28725 35906 35907 28
28726 35906 35908 28
28727 35906 35909 28
28728 35906 35910 28
28729 35911 35912 28
28730 35911 35913 28
28731 35911 35914 28
28732 35911 35915 28
28733 35916 35917 28
28734 35916 35918 28
28735 35916 35919 28
28736 35916 35920 28
28737 35921 35922 28
28738 35921 35923 28
28739 35921 35924 28
28740 35921 35925 28
28741 35926 35927 28
28742 35926 35928 28
28743 35926 35929 28
28744 35926 35930 28
28745 35931 35932 28
28746 35931 35933 28
28747 35931 35934 28
28748 35931 35935 28
28749 35936 35937 28
28750 35936 35938 28
28751 35936 35939 28
28752 35936 35940 28
28753 35941 35942 28
28754 35941 35943 28
28755 35941 35944 28
28756 35941 35945 28
28757 35946 35947 28
28758 35946 35948 28
28759 35946 35949 28
28760 35946 35950 28
28761 35951 35952 28
28762 35951 35953 28
28763 35951 35954 28
28764 35951 35955 28
28765 35956 35957 28
28766 35956 35958 28
28767 35956 35959 28
28768 35956 35960 28
28769 35961 35962 28
28770 35961 35963 28
28771 35961 35964 28
28772 35961 35965 28
28773 35966 35967 28
28774 35966 35968 28
28775 35966 35969 28
28776 35966 35970 28
28777 35971 35972 28
28778 35971 35973 28
28779 35971 35974 28
28780 35971 35975 28
28781 35976 35977 28
28782 35976 35978 28
28783 35976 35979 28
28784 35976 35980 28
28785 35981 35982 28
28786 35981 35983 28
28787 35981 35984 28
28788 35981 35985 28
28789 35986 35987 28
28790 35986 35988 28
28791 35986 35989 28
28792 35986 35990 28
28793 35991 35992 28
28794 35991 35993 28
28795 35991 35994 28
28796 35991 35995 28
28797 35996 35997 28
28798 35996 35998 28
28799 35996 35999 28
28800 35996 36000 28
28801 36001 36002 28
28802 36001 36003 28
28803 36001 36004 28
28804 36001 36005 28
28805 36006 36007 28
28806 36006 36008 28
28807 36006 36009 28
28808 36006 36010 28
28809 36011 36012 28
28810 36011 36013 28
28811 36011 36014 28
28812 36011 36015 28
28813 36016 36017 28
28814 36016 36018 28
28815 36016 36019 28
28816 36016 36020 28
28817 36021 36022 28
28818 36021 36023 28
28819 36021 36024 28
28820 36021 36025 28
28821 36026 36027 28
28822 36026 36028 28
28823 36026 36029 28
28824 36026 36030 28
28825 36031 36032 28
28826 36031 36033 28
28827 36031 36034 28
28828 36031 36035 28
28829 36036 36037 28
28830 36036 36038 28
28831 36036 36039 28
28832 36036 36040 28
28833 36041 36042 28
28834 36041 36043 28
28835 36041 36044 28
28836 36041 36045 28
28837 36046 36047 28
28838 36046 36048 28
28839 36046 36049 28
28840 36046 36050 28
28841 36051 36052 28
28842 36051 36053 28
28843 36051 36054 28
28844 36051 36055 28
28845 36056 36057 28
28846 36056 36058 28
28847 36056 36059 28
28848 36056 36060 28
28849 36061 36062 28
28850 36061 36063 28
28851 36061 36064 28
28852 36061 36065 28
28853 36066 36067 28
28854 36066 36068 28
28855 36066 36069 28
28856 36066 36070 28
28857 36071 36072 28
28858 36071 36073 28
28859 36071 36074 28
28860 36071 36075 28
28861 36076 36077 28
28862 36076 36078 28
28863 36076 36079 28
28864 36076 36080 28
28865 36081 36082 28
28866 36081 36083 28
28867 36081 36084 28
28868 36081 36085 28
28869 36086 36087 28
28870 36086 36088 28
28871 36086 36089 28
28872 36086 36090 28
28873 36091 36092 28
28874 36091 36093 28
28875 36091 36094 28
28876 36091 36095 28
28877 36096 36097 28
28878 36096 36098 28
28879 36096 36099 28
28880 36096 36100 28
28881 36101 36102 28
28882 36101 36103 28
28883 36101 36104 28
28884 36101 36105 28
28885 36106 36107 28
28886 36106 36108 28
28887 36106 36109 28
28888 36106 36110 28
28889 36111 36112 28
28890 36111 36113 28
28891 36111 36114 28
28892 36111 36115 28
28893 36116 36117 28
28894 36116 36118 28
28895 36116 36119 28
28896 36116 36120 28
28897 36121 36122 28
28898 36121 36123 28
28899 36121 36124 28
28900 36121 36125 28
28901 36126 36127 28
28902 36126 36128 28
28903 36126 36129 28
28904 36126 36130 28
28905 36131 36132 28
28906 36131 36133 28
28907 36131 36134 28
28908 36131 36135 28
28909 36136 36137 28
28910 36136 36138 28
28911 36136 36139 28
28912 36136 36140 28
28913 36141 36142 28
28914 36141 36143 28
28915 36141 36144 28
28916 36141 36145 28
28917 36146 36147 28
28918 36146 36148 28
28919 36146 36149 28
28920 36146 36150 28
28921 36151 36152 28
28922 36151 36153 28
28923 36151 36154 28
28924 36151 36155 28
28925 36156 36157 28
28926 36156 36158 28
28927 36156 36159 28
28928 36156 36160 28
28929 36161 36162 28
28930 36161 36163 28
28931 36161 36164 28
28932 36161 36165 28
28933 36166 36167 28
28934 36166 36168 28
28935 36166 36169 28
28936 36166 36170 28
28937 36171 36172 28
28938 36171 36173 28
28939 36171 36174 28
28940 36171 36175 28
28941 36176 36177 28
28942 36176 36178 28
28943 36176 36179 28
28944 36176 36180 28
28945 36181 36182 28
28946 36181 36183 28
28947 36181 36184 28
28948 36181 36185 28
28949 36186 36187 28
28950 36186 36188 28
28951 36186 36189 28
28952 36186 36190 28
28953 36191 36192 28
28954 36191 36193 28
28955 36191 36194 28
28956 36191 36195 28
28957 36196 36197 28
28958 36196 36198 28
28959 36196 36199 28
28960 36196 36200 28
28961 36201 36202 28
28962 36201 36203 28
28963 36201 36204 28
28964 36201 36205 28
28965 36206 36207 28
28966 36206 36208 28
28967 36206 36209 28
28968 36206 36210 28
28969 36211 36212 28
28970 36211 36213 28
28971 36211 36214 28
28972 36211 36215 28
28973 36216 36217 28
28974 36216 36218 28
28975 36216 36219 28
28976 36216 36220 28
28977 36221 36222 28
28978 36221 36223 28
28979 36221 36224 28
28980 36221 36225 28
28981 36226 36227 28
28982 36226 36228 28
28983 36226 36229 28
28984 36226 36230 28
28985 36231 36232 28
28986 36231 36233 28
28987 36231 36234 28
28988 36231 36235 28
28989 36236 36237 28
28990 36236 36238 28
28991 36236 36239 28
28992 36236 36240 28
28993 36241 36242 28
28994 36241 36243 28
28995 36241 36244 28
28996 36241 36245 28
28997 36246 36247 28
28998 36246 36248 28
28999 36246 36249 28
29000 36246 36250 28
29001 36251 36252 28
29002 36251 36253 28
29003 36251 36254 28
29004 36251 36255 28
29005 36256 36257 28
29006 36256 36258 28
29007 36256 36259 28
29008 36256 36260 28
29009 36261 36262 28
29010 36261 36263 28
29011 36261 36264 28
29012 36261 36265 28
29013 36266 36267 28
29014 36266 36268 28
29015 36266 36269 28
29016 36266 36270 28
29017 36271 36272 28
29018 36271 36273 28
29019 36271 36274 28
29020 36271 36275 28
29021 36276 36277 28
29022 36276 36278 28
29023 36276 36279 28
29024 36276 36280 28
29025 36281 36282 28
29026 36281 36283 28
29027 36281 36284 28
29028 36281 36285 28
29029 36286 36287 28
29030 36286 36288 28
29031 36286 36289 28
29032 36286 36290 28
29033 36291 36292 28
29034 36291 36293 28
29035 36291 36294 28
29036 36291 36295 28
29037 36296 36297 28
29038 36296 36298 28
29039 36296 36299 28
29040 36296 36300 28
29041 36301 36302 28
29042 36301 36303 28
29043 36301 36304 28
29044 36301 36305 28
29045 36306 36307 28
29046 36306 36308 28
29047 36306 36309 28
29048 36306 36310 28
29049 36311 36312 28
29050 36311 36313 28
29051 36311 36314 28
29052 36311 36315 28
29053 36316 36317 28
29054 36316 36318 28
29055 36316 36319 28
29056 36316 36320 28
29057 36321 36322 28
29058 36321 36323 28
29059 36321 36324 28
29060 36321 36325 28
29061 36326 36327 28
29062 36326 36328 28
29063 36326 36329 28
29064 36326 36330 28
29065 36331 36332 28
29066 36331 36333 28
29067 36331 36334 28
29068 36331 36335 28
29069 36336 36337 28
29070 36336 36338 28
29071 36336 36339 28
29072 36336 36340 28
29073 36341 36342 28
29074 36341 36343 28
29075 36341 36344 28
29076 36341 36345 28
29077 36346 36347 28
29078 36346 36348 28
29079 36346 36349 28
29080 36346 36350 28
29081 36351 36352 28
29082 36351 36353 28
29083 36351 36354 28
29084 36351 36355 28
29085 36356 36357 28
29086 36356 36358 28
29087 36356 36359 28
29088 36356 36360 28
29089 36361 36362 28
29090 36361 36363 28
29091 36361 36364 28
29092 36361 36365 28
29093 36366 36367 28
29094 36366 36368 28
29095 36366 36369 28
29096 36366 36370 28
29097 36371 36372 28
29098 36371 36373 28
29099 36371 36374 28
29100 36371 36375 28
29101 36376 36377 28
29102 36376 36378 28
29103 36376 36379 28
29104 36376 36380 28
29105 36381 36382 28
29106 36381 36383 28
29107 36381 36384 28
29108 36381 36385 28
29109 36386 36387 28
29110 36386 36388 28
29111 36386 36389 28
29112 36386 36390 28
29113 36391 36392 28
29114 36391 36393 28
29115 36391 36394 28
29116 36391 36395 28
29117 36396 36397 28
29118 36396 36398 28
29119 36396 36399 28
29120 36396 36400 28
29121 36401 36402 28
29122 36401 36403 28
29123 36401 36404 28
29124 36401 36405 28
29125 36406 36407 28
29126 36406 36408 28
29127 36406 36409 28
29128 36406 36410 28
29129 36411 36412 28
29130 36411 36413 28
29131 36411 36414 28
29132 36411 36415 28
29133 36416 36417 28
29134 36416 36418 28
29135 36416 36419 28
29136 36416 36420 28
29137 36421 36422 28
29138 36421 36423 28
29139 36421 36424 28
29140 36421 36425 28
29141 36426 36427 28
29142 36426 36428 28
29143 36426 36429 28
29144 36426 36430 28
29145 36431 36432 28
29146 36431 36433 28
29147 36431 36434 28
29148 36431 36435 28
29149 36436 36437 28
29150 36436 36438 28
29151 36436 36439 28
29152 36436 36440 28
29153 36441 36442 28
29154 36441 36443 28
29155 36441 36444 28
29156 36441 36445 28
29157 36446 36447 28
29158 36446 36448 28
29159 36446 36449 28
29160 36446 36450 28
29161 36451 36452 28
29162 36451 36453 28
29163 36451 36454 28
29164 36451 36455 28
29165 36456 36457 28
29166 36456 36458 28
29167 36456 36459 28
29168 36456 36460 28
29169 36461 36462 28
29170 36461 36463 28
29171 36461 36464 28
29172 36461 36465 28
29173 36466 36467 28
29174 36466 36468 28
29175 36466 36469 28
29176 36466 36470 28
29177 36471 36472 28
29178 36471 36473 28
29179 36471 36474 28
29180 36471 36475 28
29181 36476 36477 28
29182 36476 36478 28
29183 36476 36479 28
29184 36476 36480 28
29185 36481 36482 28
29186 36481 36483 28
29187 36481 36484 28
29188 36481 36485 28
29189 36486 36487 28
29190 36486 36488 28
29191 36486 36489 28
29192 36486 36490 28
29193 36491 36492 28
29194 36491 36493 28
29195 36491 36494 28
29196 36491 36495 28
29197 36496 36497 28
29198 36496 36498 28
29199 36496 36499 28
29200 36496 36500 28
29201 36501 36502 28
29202 36501 36503 28
29203 36501 36504 28
29204 36501 36505 28
29205 36506 36507 28
29206 36506 36508 28
29207 36506 36509 28
29208 36506 36510 28
29209 36511 36512 28
29210 36511 36513 28
29211 36511 36514 28
29212 36511 36515 28
29213 36516 36517 28
29214 36516 36518 28
29215 36516 36519 28
29216 36516 36520 28
29217 36521 36522 28
29218 36521 36523 28
29219 36521 36524 28
29220 36521 36525 28
29221 36526 36527 28
29222 36526 36528 28
29223 36526 36529 28
29224 36526 36530 28
29225 36531 36532 28
29226 36531 36533 28
29227 36531 36534 28
29228 36531 36535 28
29229 36536 36537 28
29230 36536 36538 28
29231 36536 36539 28
29232 36536 36540 28
29233 36541 36542 28
29234 36541 36543 28
29235 36541 36544 28
29236 36541 36545 28
29237 36546 36547 28
29238 36546 36548 28
29239 36546 36549 28
29240 36546 36550 28
29241 36551 36552 28
29242 36551 36553 28
29243 36551 36554 28
29244 36551 36555 28
29245 36556 36557 28
29246 36556 36558 28
29247 36556 36559 28
29248 36556 36560 28
29249 36561 36562 28
29250 36561 36563 28
29251 36561 36564 28
29252 36561 36565 28
29253 36566 36567 28
29254 36566 36568 28
29255 36566 36569 28
29256 36566 36570 28
29257 36571 36572 28
29258 36571 36573 28
29259 36571 36574 28
29260 36571 36575 28
29261 36576 36577 28
29262 36576 36578 28
29263 36576 36579 28
29264 36576 36580 28
29265 36581 36582 28
29266 36581 36583 28
29267 36581 36584 28
29268 36581 36585 28
29269 36586 36587 28
29270 36586 36588 28
29271 36586 36589 28
29272 36586 36590 28
29273 36591 36592 28
29274 36591 36593 28
29275 36591 36594 28
29276 36591 36595 28
29277 36596 36597 28
29278 36596 36598 28
29279 36596 36599 28
29280 36596 36600 28
29281 36601 36602 28
29282 36601 36603 28
29283 36601 36604 28
29284 36601 36605 28
29285 36606 36607 28
29286 36606 36608 28
29287 36606 36609 28
29288 36606 36610 28
29289 36611 36612 28
29290 36611 36613 28
29291 36611 36614 28
29292 36611 36615 28
29293 36616 36617 28
29294 36616 36618 28
29295 36616 36619 28
29296 36616 36620 28
29297 36621 36622 28
29298 36621 36623 28
29299 36621 36624 28
29300 36621 36625 28
29301 36626 36627 28
29302 36626 36628 28
29303 36626 36629 28
29304 36626 36630 28
29305 36631 36632 28
29306 36631 36633 28
29307 36631 36634 28
29308 36631 36635 28
29309 36636 36637 28
29310 36636 36638 28
29311 36636 36639 28
29312 36636 36640 28
29313 36641 36642 28
29314 36641 36643 28
29315 36641 36644 28
29316 36641 36645 28
29317 36646 36647 28
29318 36646 36648 28
29319 36646 36649 28
29320 36646 36650 28
29321 36651 36652 28
29322 36651 36653 28
29323 36651 36654 28
29324 36651 36655 28
29325 36656 36657 28
29326 36656 36658 28
29327 36656 36659 28
29328 36656 36660 28
29329 36661 36662 28
29330 36661 36663 28
29331 36661 36664 28
29332 36661 36665 28
29333 36666 36667 28
29334 36666 36668 28
29335 36666 36669 28
29336 36666 36670 28
29337 36671 36672 28
29338 36671 36673 28
29339 36671 36674 28
29340 36671 36675 28
29341 36676 36677 28
29342 36676 36678 28
29343 36676 36679 28
29344 36676 36680 28
29345 36681 36682 28
29346 36681 36683 28
29347 36681 36684 28
29348 36681 36685 28
29349 36686 36687 28
29350 36686 36688 28
29351 36686 36689 28
29352 36686 36690 28
29353 36691 36692 28
29354 36691 36693 28
29355 36691 36694 28
29356 36691 36695 28
29357 36696 36697 28
29358 36696 36698 28
29359 36696 36699 28
29360 36696 36700 28
29361 36701 36702 28
29362 36701 36703 28
29363 36701 36704 28
29364 36701 36705 28
29365 36706 36707 28
29366 36706 36708 28
29367 36706 36709 28
29368 36706 36710 28
29369 36711 36712 28
29370 36711 36713 28
29371 36711 36714 28
29372 36711 36715 28
29373 36716 36717 28
29374 36716 36718 28
29375 36716 36719 28
29376 36716 36720 28
29377 36721 36722 28
29378 36721 36723 28
29379 36721 36724 28
29380 36721 36725 28
29381 36726 36727 28
29382 36726 36728 28
29383 36726 36729 28
29384 36726 36730 28
29385 36731 36732 28
29386 36731 36733 28
29387 36731 36734 28
29388 36731 36735 28
29389 36736 36737 28
29390 36736 36738 28
29391 36736 36739 28
29392 36736 36740 28
29393 36741 36742 28
29394 36741 36743 28
29395 36741 36744 28
29396 36741 36745 28
29397 36746 36747 28
29398 36746 36748 28
29399 36746 36749 28
29400 36746 36750 28
29401 36751 36752 28
29402 36751 36753 28
29403 36751 36754 28
29404 36751 36755 28
29405 36756 36757 28
29406 36756 36758 28
29407 36756 36759 28
29408 36756 36760 28
29409 36761 36762 28
29410 36761 36763 28
29411 36761 36764 28
29412 36761 36765 28
29413 36766 36767 28
29414 36766 36768 28
29415 36766 36769 28
29416 36766 36770 28
29417 36771 36772 28
29418 36771 36773 28
29419 36771 36774 28
29420 36771 36775 28
29421 36776 36777 28
29422 36776 36778 28
29423 36776 36779 28
29424 36776 36780 28
29425 36781 36782 28
29426 36781 36783 28
29427 36781 36784 28
29428 36781 36785 28
29429 36786 36787 28
29430 36786 36788 28
29431 36786 36789 28
29432 36786 36790 28
29433 36791 36792 28
29434 36791 36793 28
29435 36791 36794 28
29436 36791 36795 28
29437 36796 36797 28
29438 36796 36798 28
29439 36796 36799 28
29440 36796 36800 28
29441 36801 36802 28
29442 36801 36803 28
29443 36801 36804 28
29444 36801 36805 28
29445 36806 36807 28
29446 36806 36808 28
29447 36806 36809 28
29448 36806 36810 28
29449 36811 36812 28
29450 36811 36813 28
29451 36811 36814 28
29452 36811 36815 28
29453 36816 36817 28
29454 36816 36818 28
29455 36816 36819 28
29456 36816 36820 28
29457 36821 36822 28
29458 36821 36823 28
29459 36821 36824 28
29460 36821 36825 28
29461 36826 36827 28
29462 36826 36828 28
29463 36826 36829 28
29464 36826 36830 28
29465 36831 36832 28
29466 36831 36833 28
29467 36831 36834 28
29468 36831 36835 28
29469 36836 36837 28
29470 36836 36838 28
29471 36836 36839 28
29472 36836 36840 28
29473 36841 36842 28
29474 36841 36843 28
29475 36841 36844 28
29476 36841 36845 28
29477 36846 36847 28
29478 36846 36848 28
29479 36846 36849 28
29480 36846 36850 28
29481 36851 36852 28
29482 36851 36853 28
29483 36851 36854 28
29484 36851 36855 28
29485 36856 36857 28
29486 36856 36858 28
29487 36856 36859 28
29488 36856 36860 28
29489 36861 36862 28
29490 36861 36863 28
29491 36861 36864 28
29492 36861 36865 28
29493 36866 36867 28
29494 36866 36868 28
29495 36866 36869 28
29496 36866 36870 28
29497 36871 36872 28
29498 36871 36873 28
29499 36871 36874 28
29500 36871 36875 28
29501 36876 36877 28
29502 36876 36878 28
29503 36876 36879 28
29504 36876 36880 28
29505 36881 36882 28
29506 36881 36883 28
29507 36881 36884 28
29508 36881 36885 28
29509 36886 36887 28
29510 36886 36888 28
29511 36886 36889 28
29512 36886 36890 28
29513 36891 36892 28
29514 36891 36893 28
29515 36891 36894 28
29516 36891 36895 28
29517 36896 36897 28
29518 36896 36898 28
29519 36896 36899 28
29520 36896 36900 28
29521 36901 36902 28
29522 36901 36903 28
29523 36901 36904 28
29524 36901 36905 28
29525 36906 36907 28
29526 36906 36908 28
29527 36906 36909 28
29528 36906 36910 28
29529 36911 36912 28
29530 36911 36913 28
29531 36911 36914 28
29532 36911 36915 28
29533 36916 36917 28
29534 36916 36918 28
29535 36916 36919 28
29536 36916 36920 28
29537 36921 36922 28
29538 36921 36923 28
29539 36921 36924 28
29540 36921 36925 28
29541 36926 36927 28
29542 36926 36928 28
29543 36926 36929 28
29544 36926 36930 28
29545 36931 36932 28
29546 36931 36933 28
29547 36931 36934 28
29548 36931 36935 28
29549 36936 36937 28
29550 36936 36938 28
29551 36936 36939 28
29552 36936 36940 28
29553 36941 36942 28
29554 36941 36943 28
29555 36941 36944 28
29556 36941 36945 28
29557 36946 36947 28
29558 36946 36948 28
29559 36946 36949 28
29560 36946 36950 28
29561 36951 36952 28
29562 36951 36953 28
29563 36951 36954 28
29564 36951 36955 28
29565 36956 36957 28
29566 36956 36958 28
29567 36956 36959 28
29568 36956 36960 28
29569 36961 36962 28
29570 36961 36963 28
29571 36961 36964 28
29572 36961 36965 28
29573 36966 36967 28
29574 36966 36968 28
29575 36966 36969 28
29576 36966 36970 28
29577 36971 36972 28
29578 36971 36973 28
29579 36971 36974 28
29580 36971 36975 28
29581 36976 36977 28
29582 36976 36978 28
29583 36976 36979 28
29584 36976 36980 28
29585 36981 36982 28
29586 36981 36983 28
29587 36981 36984 28
29588 36981 36985 28
29589 36986 36987 28
29590 36986 36988 28
29591 36986 36989 28
29592 36986 36990 28
29593 36991 36992 28
29594 36991 36993 28
29595 36991 36994 28
29596 36991 36995 28
29597 36996 36997 28
29598 36996 36998 28
29599 36996 36999 28
29600 36996 37000 28
29601 37001 37002 28
29602 37001 37003 28
29603 37001 37004 28
29604 37001 37005 28
29605 37006 37007 28
29606 37006 37008 28
29607 37006 37009 28
29608 37006 37010 28
29609 37011 37012 28
29610 37011 37013 28
29611 37011 37014 28
29612 37011 37015 28
29613 37016 37017 28
29614 37016 37018 28
29615 37016 37019 28
29616 37016 37020 28
29617 37021 37022 28
29618 37021 37023 28
29619 37021 37024 28
29620 37021 37025 28
29621 37026 37027 28
29622 37026 37028 28
29623 37026 37029 28
29624 37026 37030 28
29625 37031 37032 28
29626 37031 37033 28
29627 37031 37034 28
29628 37031 37035 28
29629 37036 37037 28
29630 37036 37038 28
29631 37036 37039 28
29632 37036 37040 28
29633 37041 37042 28
29634 37041 37043 28
29635 37041 37044 28
29636 37041 37045 28
29637 37046 37047 28
29638 37046 37048 28
29639 37046 37049 28
29640 37046 37050 28
29641 37051 37052 28
29642 37051 37053 28
29643 37051 37054 28
29644 37051 37055 28
29645 37056 37057 28
29646 37056 37058 28
29647 37056 37059 28
29648 37056 37060 28
29649 37061 37062 28
29650 37061 37063 28
29651 37061 37064 28
29652 37061 37065 28
29653 37066 37067 28
29654 37066 37068 28
29655 37066 37069 28
29656 37066 37070 28
29657 37071 37072 28
29658 37071 37073 28
29659 37071 37074 28
29660 37071 37075 28
29661 37076 37077 28
29662 37076 37078 28
29663 37076 37079 28
29664 37076 37080 28
29665 37081 37082 28
29666 37081 37083 28
29667 37081 37084 28
29668 37081 37085 28
29669 37086 37087 28
29670 37086 37088 28
29671 37086 37089 28
29672 37086 37090 28
29673 37091 37092 28
29674 37091 37093 28
29675 37091 37094 28
29676 37091 37095 28
29677 37096 37097 28
29678 37096 37098 28
29679 37096 37099 28
29680 37096 37100 28
29681 37101 37102 28
29682 37101 37103 28
29683 37101 37104 28
29684 37101 37105 28
29685 37106 37107 28
29686 37106 37108 28
29687 37106 37109 28
29688 37106 37110 28
29689 37111 37112 28
29690 37111 37113 28
29691 37111 37114 28
29692 37111 37115 28
29693 37116 37117 28
29694 37116 37118 28
29695 37116 37119 28
29696 37116 37120 28
29697 37121 37122 28
29698 37121 37123 28
29699 37121 37124 28
29700 37121 37125 28
29701 37126 37127 28
29702 37126 37128 28
29703 37126 37129 28
29704 37126 37130 28
29705 37131 37132 28
29706 37131 37133 28
29707 37131 37134 28
29708 37131 37135 28
29709 37136 37137 28
29710 37136 37138 28
29711 37136 37139 28
29712 37136 37140 28
29713 37141 37142 28
29714 37141 37143 28
29715 37141 37144 28
29716 37141 37145 28
29717 37146 37147 28
29718 37146 37148 28
29719 37146 37149 28
29720 37146 37150 28
29721 37151 37152 28
29722 37151 37153 28
29723 37151 37154 28
29724 37151 37155 28
29725 37156 37157 28
29726 37156 37158 28
29727 37156 37159 28
29728 37156 37160 28
29729 37161 37162 28
29730 37161 37163 28
29731 37161 37164 28
29732 37161 37165 28
29733 37166 37167 28
29734 37166 37168 28
29735 37166 37169 28
29736 37166 37170 28
29737 37171 37172 28
29738 37171 37173 28
29739 37171 37174 28
29740 37171 37175 28
29741 37176 37177 28
29742 37176 37178 28
29743 37176 37179 28
29744 37176 37180 28
29745 37181 37182 28
29746 37181 37183 28
29747 37181 37184 28
29748 37181 37185 28
29749 37186 37187 28
29750 37186 37188 28
29751 37186 37189 28
29752 37186 37190 28
29753 37191 37192 28
29754 37191 37193 28
29755 37191 37194 28
29756 37191 37195 28
29757 37196 37197 28
29758 37196 37198 28
29759 37196 37199 28
29760 37196 37200 28
29761 37201 37202 28
29762 37201 37203 28
29763 37201 37204 28
29764 37201 37205 28
29765 37206 37207 28
29766 37206 37208 28
29767 37206 37209 28
29768 37206 37210 28
29769 37211 37212 28
29770 37211 37213 28
29771 37211 37214 28
29772 37211 37215 28
29773 37216 37217 28
29774 37216 37218 28
29775 37216 37219 28
29776 37216 37220 28
29777 37221 37222 28
29778 37221 37223 28
29779 37221 37224 28
29780 37221 37225 28
29781 37226 37227 28
29782 37226 37228 28
29783 37226 37229 28
29784 37226 37230 28
29785 37231 37232 28
29786 37231 37233 28
29787 37231 37234 28
29788 37231 37235 28
29789 37236 37237 28
29790 37236 37238 28
29791 37236 37239 28
29792 37236 37240 28
29793 37241 37242 28
29794 37241 37243 28
29795 37241 37244 28
29796 37241 37245 28
29797 37246 37247 28
29798 37246 37248 28
29799 37246 37249 28
29800 37246 37250 28
29801 37251 37252 28
29802 37251 37253 28
29803 37251 37254 28
29804 37251 37255 28
29805 37256 37257 28
29806 37256 37258 28
29807 37256 37259 28
29808 37256 37260 28
29809 37261 37262 28
29810 37261 37263 28
29811 37261 37264 28
29812 37261 37265 28
29813 37266 37267 28
29814 37266 37268 28
29815 37266 37269 28
29816 37266 37270 28
29817 37271 37272 28
29818 37271 37273 28
29819 37271 37274 28
29820 37271 37275 28
29821 37276 37277 28
29822 37276 37278 28
29823 37276 37279 28
29824 37276 37280 28
29825 37281 37282 28
29826 37281 37283 28
29827 37281 37284 28
29828 37281 37285 28
29829 37286 37287 28
29830 37286 37288 28
29831 37286 37289 28
29832 37286 37290 28
29833 37291 37292 28
29834 37291 37293 28
29835 37291 37294 28
29836 37291 37295 28
29837 37296 37297 28
29838 37296 37298 28
29839 37296 37299 28
29840 37296 37300 28
29841 37301 37302 28
29842 37301 37303 28
29843 37301 37304 28
29844 37301 37305 28
29845 37306 37307 28
29846 37306 37308 28
29847 37306 37309 28
29848 37306 37310 28
29849 37311 37312 28
29850 37311 37313 28
29851 37311 37314 28
29852 37311 37315 28
29853 37316 37317 28
29854 37316 37318 28
29855 37316 37319 28
29856 37316 37320 28
29857 37321 37322 28
29858 37321 37323 28
29859 37321 37324 28
29860 37321 37325 28
29861 37326 37327 28
29862 37326 37328 28
29863 37326 37329 28
29864 37326 37330 28
29865 37331 37332 28
29866 37331 37333 28
29867 37331 37334 28
29868 37331 37335 28
29869 37336 37337 28
29870 37336 37338 28
29871 37336 37339 28
29872 37336 37340 28
29873 37341 37342 28
29874 37341 37343 28
29875 37341 37344 28
29876 37341 37345 28
29877 37346 37347 28
29878 37346 37348 28
29879 37346 37349 28
29880 37346 37350 28
29881 37351 37352 28
29882 37351 37353 28
29883 37351 37354 28
29884 37351 37355 28
29885 37356 37357 28
29886 37356 37358 28
29887 37356 37359 28
29888 37356 37360 28
29889 37361 37362 28
29890 37361 37363 28
29891 37361 37364 28
29892 37361 37365 28
29893 37366 37367 28
29894 37366 37368 28
29895 37366 37369 28
29896 37366 37370 28
29897 37371 37372 28
29898 37371 37373 28
29899 37371 37374 28
29900 37371 37375 28
29901 37376 37377 28
29902 37376 37378 28
29903 37376 37379 28
29904 37376 37380 28
29905 37381 37382 28
29906 37381 37383 28
29907 37381 37384 28
29908 37381 37385 28
29909 37386 37387 28
29910 37386 37388 28
29911 37386 37389 28
29912 37386 37390 28
29913 37391 37392 28
29914 37391 37393 28
29915 37391 37394 28
29916 37391 37395 28
29917 37396 37397 28
29918 37396 37398 28
29919 37396 37399 28
29920 37396 37400 28
29921 37401 37402 28
29922 37401 37403 28
29923 37401 37404 28
29924 37401 37405 28
29925 37406 37407 28
29926 37406 37408 28
29927 37406 37409 28
29928 37406 37410 28
29929 37411 37412 28
29930 37411 37413 28
29931 37411 37414 28
29932 37411 37415 28
29933 37416 37417 28
29934 37416 37418 28
29935 37416 37419 28
29936 37416 37420 28
29937 37421 37422 28
29938 37421 37423 28
29939 37421 37424 28
29940 37421 37425 28
29941 37426 37427 28
29942 37426 37428 28
29943 37426 37429 28
29944 37426 37430 28
29945 37431 37432 28
29946 37431 37433 28
29947 37431 37434 28
29948 37431 37435 28
29949 37436 37437 28
29950 37436 37438 28
29951 37436 37439 28
29952 37436 37440 28
29953 37441 37442 28
29954 37441 37443 28
29955 37441 37444 28
29956 37441 37445 28
29957 37446 37447 28
29958 37446 37448 28
29959 37446 37449 28
29960 37446 37450 28
29961 37451 37452 28
29962 37451 37453 28
29963 37451 37454 28
29964 37451 37455 28
29965 37456 37457 28
29966 37456 37458 28
29967 37456 37459 28
29968 37456 37460 28
29969 37461 37462 28
29970 37461 37463 28
29971 37461 37464 28
29972 37461 37465 28
29973 37466 37467 28
29974 37466 37468 28
29975 37466 37469 28
29976 37466 37470 28
29977 37471 37472 28
29978 37471 37473 28
29979 37471 37474 28
29980 37471 37475 28
29981 37476 37477 28
29982 37476 37478 28
29983 37476 37479 28
29984 37476 37480 28
29985 37481 37482 28
29986 37481 37483 28
29987 37481 37484 28
29988 37481 37485 28
29989 37486 37487 28
29990 37486 37488 28
29991 37486 37489 28
29992 37486 37490 28
29993 37491 37492 28
29994 37491 37493 28
29995 37491 37494 28
29996 37491 37495 28
29997 37496 37497 28
29998 37496 37498 28
29999 37496 37499 28
30000 37496 37500 28
@<TRIPOS>CRYSIN
109.6541904140401 109.6541904140401 109.6541904140401 90 90 90 1 1
