@<TRIPOS>MOLECULE
mol
37500 30000
SMALL
USER_CHARGES


@<TRIPOS>ATOM
1 C 83.08223980943393 29.813706037019486 81.69510198671631 C 0.0 **** -0.24
2 H 84.0959475837061 30.172835618203067 81.5188459841493 H 0.0 **** 0.06
3 H 82.39383172725432 30.658478209440197 81.70437424008728 H 0.0 **** 0.06
4 H 83.04113435431819 29.30018447347601 82.65550900332755 H 0.0 **** 0.06
5 H 82.79904182181603 29.122796332051813 80.90082596302037 H 0.0 **** 0.06
6 C 76.85896569178193 41.4633902019323 79.48949233152872 C 0.0 **** -0.24
7 H 77.13141986045076 41.809922307493025 78.49285553211122 H 0.0 **** 0.06
8 H 77.51869501364004 40.6465794760617 79.78429094705628 H 0.0 **** 0.06
9 H 75.8269201436862 41.11158017778499 79.48197970106693 H 0.0 **** 0.06
10 H 76.95793236895128 42.28521263557653 80.19920017779971 H 0.0 **** 0.06
11 C 57.16988776725938 16.763632288701203 96.66880958287163 C 0.0 **** -0.24
12 H 57.54316598330419 16.63123729517976 97.68414432130103 H 0.0 **** 0.06
13 H 57.88074015902134 16.333947381979684 95.96188700015243 H 0.0 **** 0.06
14 H 57.05039729738624 17.827056640279437 96.46152624066258 H 0.0 **** 0.06
15 H 56.20743432092107 16.26241778440533 96.56723163256014 H 0.0 **** 0.06
16 C 64.56575911876087 52.84140261393975 65.09013414132872 C 0.0 **** -0.24
17 H 65.27672227185835 52.98452943011398 64.27650350669396 H 0.0 **** 0.06
18 H 63.961265109384186 51.955925685464194 64.89312064438812 H 0.0 **** 0.06
19 H 63.91839574373765 53.71573441649349 65.16435213329488 H 0.0 **** 0.06
20 H 65.10804974298682 52.710397597406825 66.02687065714929 H 0.0 **** 0.06
21 C 67.40887771228788 83.5724505605422 27.714014802978667 C 0.0 **** -0.24
22 H 67.87381856669137 83.14254449434765 28.601034796667705 H 0.0 **** 0.06
23 H 66.40941581953646 83.92984128459955 27.96413188275085 H 0.0 **** 0.06
24 H 67.3393179814257 82.81285251317433 26.936126055178107 H 0.0 **** 0.06
25 H 68.0130542288334 84.40577819602458 27.35548517840246 H 0.0 **** 0.06
26 C 21.14596624955243 73.2215028130259 60.54891629340207 C 0.0 **** -0.24
27 H 21.714276368672643 72.31790439643015 60.32432265931726 H 0.0 **** 0.06
28 H 21.498528022706125 73.64739195091413 61.48855950707926 H 0.0 **** 0.06
29 H 20.088959361319468 72.97304306744144 60.63554092335485 H 0.0 **** 0.06
30 H 21.285197495040848 73.9449726202786 59.746179871499606 H 0.0 **** 0.06
31 C 49.42133512687924 24.280367497769475 33.732460697466536 C 0.0 **** -0.24
32 H 50.20067289916012 23.802606826019996 34.326778052301734 H 0.0 **** 0.06
33 H 48.87938873128784 24.995149570455624 34.35145293074899 H 0.0 **** 0.06
34 H 48.73146077800595 23.52279391670163 33.36150742643255 H 0.0 **** 0.06
35 H 49.87675136391117 24.80134727108259 32.88964228100852 H 0.0 **** 0.06
36 C 14.444186121796761 92.17170904997886 35.68280805095894 C 0.0 **** -0.24
37 H 14.519337513544727 93.22165943297625 35.966200324044934 H 0.0 **** 0.06
38 H 15.057279943966535 91.98891446844642 34.800314530870686 H 0.0 **** 0.06
39 H 13.404606045983215 91.92919469019701 35.46039447173571 H 0.0 **** 0.06
40 H 14.794552871581189 91.54786853930278 36.505515104766026 H 0.0 **** 0.06
41 C 22.306539708590286 75.18590388333351 1.1955734073860071 C 0.0 **** -0.24
42 H 23.353473156380197 75.37607239799034 0.9630354179012102 H 0.0 **** 0.06
43 H 21.87908481380961 74.52604625467616 0.4403820767876425 H 0.0 **** 0.06
44 H 21.75951668846638 76.12906506631614 1.2067332864192934 H 0.0 **** 0.06
45 H 22.232953168976792 74.71261461261221 2.1749155408113836 H 0.0 **** 0.06
46 C 103.30263273751055 64.17750785064794 25.445413383337154 C 0.0 **** -0.24
47 H 103.94247707808306 64.88848026835203 25.968622875503712 H 0.0 **** 0.06
48 H 103.73526025171306 63.94898818620473 24.4713230843889 H 0.0 **** 0.06
49 H 102.31227336741871 64.61207168717516 25.311017402384266 H 0.0 **** 0.06
50 H 103.22150158782712 63.262616845857536 26.031410689165682 H 0.0 **** 0.06
51 C 17.70074016884052 70.13242201120832 79.74852675416076 C 0.0 **** -0.24
52 H 18.570402399461873 69.59486914490208 80.12653235020929 H 0.0 **** 0.06
53 H 17.62085683231453 69.98137215615719 78.67229942146463 H 0.0 **** 0.06
54 H 17.812630830839346 71.19667870401415 79.9598912703434 H 0.0 **** 0.06
55 H 16.801466643174827 69.7577446851007 80.23745899476796 H 0.0 **** 0.06
56 C 6.020564257168829 59.12240288632838 64.26564281239999 C 0.0 **** -0.24
57 H 6.299003451848151 58.95637317661859 65.30691439784036 H 0.0 **** 0.06
58 H 6.05637382965908 58.17627821304365 63.725608107061035 H 0.0 **** 0.06
59 H 6.716927439703355 59.82755134601325 63.8126078881583 H 0.0 **** 0.06
60 H 5.010295899424719 59.52915494839488 64.22166203266761 H 0.0 **** 0.06
61 C 7.143496201402613 89.00398271510598 28.0915082471073 C 0.0 **** -0.24
62 H 7.168807006358662 88.87428198267001 27.0094672135031 H 0.0 **** 0.06
63 H 6.120173960078915 89.19901038186669 28.40985465630841 H 0.0 **** 0.06
64 H 7.778412503815559 89.84455627223878 28.370658866781454 H 0.0 **** 0.06
65 H 7.50841365654685 88.09662589972618 28.573491232763217 H 0.0 **** 0.06
66 C 77.06317437791927 66.64919462760861 52.57178243546185 C 0.0 **** -0.24
67 H 76.35904198377841 65.87046669743019 52.27764281079417 H 0.0 **** 0.06
68 H 77.74757504258025 66.84967079421398 51.7464571539662 H 0.0 **** 0.06
69 H 77.6294232334514 66.31699893687076 53.44202606442444 H 0.0 **** 0.06
70 H 76.51557600316693 67.55847809520249 52.8186635407557 H 0.0 **** 0.06
71 C 52.12024300072187 90.26353290789511 58.318909927427754 C 0.0 **** -0.24
72 H 51.061120373912786 90.383627330372 58.54702459775009 H 0.0 **** 0.06
73 H 52.71283345705626 90.54644494158526 59.18888293699131 H 0.0 **** 0.06
74 H 52.38503205879044 90.9006170521874 57.47520960025862 H 0.0 **** 0.06
75 H 52.3213492872207 89.2227309316556 58.06556588164558 H 0.0 **** 0.06
76 C 80.2027202529934 33.25785828788972 65.58302970449489 C 0.0 **** -0.24
77 H 79.24012713707654 33.709177145736646 65.33981878792127 H 0.0 **** 0.06
78 H 80.28189314822174 32.28579167908495 65.09656299904975 H 0.0 **** 0.06
79 H 80.28179257434758 33.13182384156252 66.66332672067162 H 0.0 **** 0.06
80 H 81.00590288271613 33.9064181580662 65.23310475692494 H 0.0 **** 0.06
81 C 25.239376591297827 25.900317321748787 48.23574891391863 C 0.0 **** -0.24
82 H 25.557677862857673 26.466626000282332 47.3594369984489 H 0.0 **** 0.06
83 H 24.63052467517801 26.536279160303735 48.87791366283918 H 0.0 **** 0.06
84 H 26.117170323108382 25.560248222739915 48.78515939415743 H 0.0 **** 0.06
85 H 24.65401829930667 25.037867634774187 47.91669261482846 H 0.0 **** 0.06
86 C 57.97598610392537 97.43896921503881 91.56590040517179 C 0.0 **** -0.24
87 H 57.16094211059512 96.7516687350951 91.79116028859377 H 0.0 **** 0.06
88 H 58.273679124616194 97.95957901906353 92.47651560395721 H 0.0 **** 0.06
89 H 57.643107011704295 98.16470521350337 90.82344871858115 H 0.0 **** 0.06
90 H 58.82465598255846 96.87998899374529 91.17172753046509 H 0.0 **** 0.06
91 C 30.80215384507349 9.441243911344145 95.10559157031689 C 0.0 **** -0.24
92 H 30.741007352054794 8.362789722829262 94.95892055509081 H 0.0 **** 0.06
93 H 31.591539493783216 9.849437800568182 94.47294882710636 H 0.0 **** 0.06
94 H 31.02759417041071 9.65352289656255 96.1503527715521 H 0.0 **** 0.06
95 H 29.850362185146167 9.899168986067707 94.83858424133217 H 0.0 **** 0.06
96 C 57.804516054261185 10.339487317703458 76.12739275160189 C 0.0 **** -0.24
97 H 58.190450922041826 11.19953597936933 76.67609244930665 H 0.0 **** 0.06
98 H 56.93790894185259 9.934901911758516 76.65041806284884 H 0.0 **** 0.06
99 H 58.578725663237485 9.575087916589268 76.05929168430376 H 0.0 **** 0.06
100 H 57.512343524279764 10.651155900400227 75.12506168274297 H 0.0 **** 0.06
101 C 61.539874236113846 10.8189515934734 33.72020182442674 C 0.0 **** -0.24
102 H 62.04216508754622 11.778800547533535 33.60457076724566 H 0.0 **** 0.06
103 H 61.321995230829586 10.647182837723562 34.77406705209529 H 0.0 **** 0.06
104 H 62.186800210456326 10.024049376579 33.347664570490224 H 0.0 **** 0.06
105 H 60.60956726084726 10.826126237138737 33.15255215496893 H 0.0 **** 0.06
106 C 42.586923150898286 17.855922951688996 59.6321542002887 C 0.0 **** -0.24
107 H 42.06581024516401 18.15098961687829 58.72070657824352 H 0.0 **** 0.06
108 H 42.69267982748354 18.7214729678642 60.286204965920234 H 0.0 **** 0.06
109 H 43.57258992854555 17.46915770905889 59.377277239633045 H 0.0 **** 0.06
110 H 42.0139601301504 17.081431598796996 60.14318089456176 H 0.0 **** 0.06
111 C 34.9210033807684 29.35786984921031 101.92547545038971 C 0.0 **** -0.24
112 H 33.97661878059861 29.39485363426202 101.38216462927349 H 0.0 **** 0.06
113 H 35.132565412709205 30.33893266558789 102.3508740505624 H 0.0 **** 0.06
114 H 35.722498715536936 29.07704428474107 101.24239205371063 H 0.0 **** 0.06
115 H 34.85057648250514 28.621984396552776 102.72684452042884 H 0.0 **** 0.06
116 C 66.50513261082192 59.364845448869175 55.92204048354023 C 0.0 **** -0.24
117 H 67.16203391504396 59.439512329978015 55.05550356278246 H 0.0 **** 0.06
118 H 66.28244119153402 58.31532542671613 56.1197626565575 H 0.0 **** 0.06
119 H 65.57769710717825 59.90109934994928 55.72149163852146 H 0.0 **** 0.06
120 H 66.99722606440082 59.801420897270305 56.7906149336531 H 0.0 **** 0.06
121 C 10.728107674558771 22.300053744813795 29.57673604589297 C 0.0 **** -0.24
122 H 9.76015164440338 21.9466365843042 29.22114477752487 H 0.0 **** 0.06
123 H 10.921472190365535 21.891708712296463 30.569176094656285 H 0.0 **** 0.06
124 H 10.720854323092226 23.389253274608564 29.62725851588766 H 0.0 **** 0.06
125 H 11.509464869217993 21.973390383923515 28.89044332704222 H 0.0 **** 0.06
126 C 77.49426208430955 43.346778966935716 6.192948804687148 C 0.0 **** -0.24
127 H 77.84404800736283 44.226362138811254 6.7338794684601595 H 0.0 **** 0.06
128 H 76.40554237960347 43.3649868758462 6.136004797757138 H 0.0 **** 0.06
129 H 77.816021497946 42.44632497721966 6.715708957537117 H 0.0 **** 0.06
130 H 77.910988702085 43.35134378135359 5.185114564317303 H 0.0 **** 0.06
131 C 58.41690579542726 97.58803964777157 60.3902963601341 C 0.0 **** -0.24
132 H 58.171792844531424 96.58669541965635 60.74468188077043 H 0.0 **** 0.06
133 H 58.03665566167805 98.32612764834346 61.09678886863745 H 0.0 **** 0.06
134 H 57.959856050399566 97.74977441325434 59.41389679152806 H 0.0 **** 0.06
135 H 59.49910369498162 97.68864322411092 60.306151571437425 H 0.0 **** 0.06
136 C 1.393631708820652 63.05301056600362 100.27888756918786 C 0.0 **** -0.24
137 H 0.344368591234562 63.03560329933008 99.98715391602461 H 0.0 **** 0.06
138 H 2.0078438922134474 63.30224405662514 99.41257535663613 H 0.0 **** 0.06
139 H 1.681911352057841 62.073456485417736 100.65934561482325 H 0.0 **** 0.06
140 H 1.5417657407734593 63.80247004546155 101.05609506095475 H 0.0 **** 0.06
141 C 43.320710564321445 61.70435140715547 3.770832876320119 C 0.0 **** -0.24
142 H 43.452409507391316 62.308739971537946 2.8733600030672743 H 0.0 **** 0.06
143 H 44.26071631685927 61.20927633293243 4.016380437590183 H 0.0 **** 0.06
144 H 42.549744103464974 60.9554024600492 3.594824879929882 H 0.0 **** 0.06
145 H 43.02086516150872 62.34651406169179 4.599669784084169 H 0.0 **** 0.06
146 C 96.456410399648 49.043157456332295 89.38417661333408 C 0.0 **** -0.24
147 H 95.92098050912976 49.66351346138978 88.66574641726591 H 0.0 **** 0.06
148 H 96.67975521481131 49.63117024728405 90.27534317327682 H 0.0 **** 0.06
149 H 97.38644077221399 48.69117965586733 88.9386658889537 H 0.0 **** 0.06
150 H 95.83770708617855 48.18895671439418 89.65774373911508 H 0.0 **** 0.06
151 C 62.41129351859615 46.24033423610098 74.9208654126129 C 0.0 **** -0.24
152 H 62.94830349653995 46.086620703014916 75.85631241431855 H 0.0 **** 0.06
153 H 61.89773393301968 47.20225431856286 74.95064960327295 H 0.0 **** 0.06
154 H 61.68074101703513 45.44263563508707 74.78592209862072 H 0.0 **** 0.06
155 H 63.11733147874341 46.231192683171216 74.0905512954578 H 0.0 **** 0.06
156 C 103.3006566829462 6.753189407977169 67.0252187303254 C 0.0 **** -0.24
157 H 103.69493071214143 7.765541422821981 66.94258671027661 H 0.0 **** 0.06
158 H 102.54100333515643 6.722135386940613 67.80686519002872 H 0.0 **** 0.06
159 H 104.10962010486352 6.067194105680864 67.27595429668274 H 0.0 **** 0.06
160 H 102.8562080818131 6.458587833204904 66.07459627319749 H 0.0 **** 0.06
161 C 64.73719521115464 4.5745782018523045 6.5947223695750665 C 0.0 **** -0.24
162 H 63.87776155246618 5.243764756553048 6.584389083049615 H 0.0 **** 0.06
163 H 64.54873210513384 3.7506998825258506 7.283709249753684 H 0.0 **** 0.06
164 H 65.62116638062685 5.124873876717089 6.918149923748189 H 0.0 **** 0.06
165 H 64.90283444494125 4.179138246502504 5.592449649674762 H 0.0 **** 0.06
166 C 19.229769478680737 25.06764819632872 69.85460459020845 C 0.0 **** -0.24
167 H 18.847363052778007 25.432171861772844 70.80865468651528 H 0.0 **** 0.06
168 H 18.438861006746407 24.531414361331088 69.32914401066756 H 0.0 **** 0.06
169 H 20.06863747746047 24.396099782153783 70.03226671217024 H 0.0 **** 0.06
170 H 19.560976434073922 25.911428831140626 69.25015041424537 H 0.0 **** 0.06
171 C 87.05816557151188 42.51003374137001 56.66204840960603 C 0.0 **** -0.24
172 H 87.33868184953165 43.556478554307205 56.542413230688055 H 0.0 **** 0.06
173 H 87.4595744423179 42.13092401736406 57.601952367842784 H 0.0 **** 0.06
174 H 87.46194349231504 41.92829295993567 55.83352879486955 H 0.0 **** 0.06
175 H 85.97134295438303 42.424161248855164 56.67111736395594 H 0.0 **** 0.06
176 C 56.415660007847094 41.901166235815346 37.853571391239996 C 0.0 **** -0.24
177 H 56.6118460311863 41.50236443015934 36.85769794231922 H 0.0 **** 0.06
178 H 57.06760101427216 42.755311285942234 38.0374786478618 H 0.0 **** 0.06
179 H 56.61108236273867 41.12923332130563 38.59787938141159 H 0.0 **** 0.06
180 H 55.37509178774451 42.21605050082502 37.92013193667307 H 0.0 **** 0.06
181 C 78.2818929498137 53.95078196704058 4.988620733364073 C 0.0 **** -0.24
182 H 77.76162300103694 54.84053282823988 4.63184578636843 H 0.0 **** 0.06
183 H 78.43792742732275 53.26323879308383 4.157007026187827 H 0.0 **** 0.06
184 H 77.68154285350947 53.46286165911683 5.75620214417971 H 0.0 **** 0.06
185 H 79.24534831810647 54.238245507667976 5.408617323173559 H 0.0 **** 0.06
186 C 60.29295761372845 72.24671938516661 100.04518747715548 C 0.0 **** -0.24
187 H 59.93367259842674 72.11484877661604 101.06642603281523 H 0.0 **** 0.06
188 H 59.78700383967691 71.53791931829437 99.38865947968463 H 0.0 **** 0.06
189 H 61.36723236950829 72.06894552410182 100.01222008852673 H 0.0 **** 0.06
190 H 60.08240928240312 73.26348356132229 99.71438739712173 H 0.0 **** 0.06
191 C 43.46201312756838 101.94965978690797 48.91939866104889 C 0.0 **** -0.24
192 H 42.67227883393118 102.04461716077849 49.66435471971471 H 0.0 **** 0.06
193 H 43.7153573731175 100.89637322766109 48.79228886356873 H 0.0 **** 0.06
194 H 44.3430340399102 102.4991277081713 49.25088147776597 H 0.0 **** 0.06
195 H 43.115701042206474 102.3571004071477 47.968994621351555 H 0.0 **** 0.06
196 C 22.588252799902733 67.22237940378469 101.31275347486466 C 0.0 **** -0.24
197 H 22.521188367540404 66.14522023583635 101.46761866148321 H 0.0 **** 0.06
198 H 22.81606241621691 67.42492721473846 100.26559067312053 H 0.0 **** 0.06
199 H 23.380037522067738 67.63050704378472 101.94253882196104 H 0.0 **** 0.06
200 H 21.638852234086983 67.68710315534653 101.57631949601014 H 0.0 **** 0.06
201 C 85.4685845354717 60.110300503326194 79.57262619960792 C 0.0 **** -0.24
202 H 85.03780732152372 60.88417308110577 78.9373845708417 H 0.0 **** 0.06
203 H 86.36371380567907 60.4973571202989 80.05957227051832 H 0.0 **** 0.06
204 H 85.73097944430755 59.24504808701724 78.96387101495364 H 0.0 **** 0.06
205 H 84.74076843881657 59.815418934225825 80.32920292534095 H 0.0 **** 0.06
206 C 56.407532488135274 104.8364135308185 49.1479026939229 C 0.0 **** -0.24
207 H 55.80585251353122 104.1284559935165 49.7186084664591 H 0.0 **** 0.06
208 H 57.33961607467393 105.03054152537038 49.67752441205084 H 0.0 **** 0.06
209 H 55.85503101282646 105.76880702599408 49.02934374902071 H 0.0 **** 0.06
210 H 56.62630943081439 104.4164456261125 48.16616580812763 H 0.0 **** 0.06
211 C 4.849768429614301 50.8081612979016 50.563112522932954 C 0.0 **** -0.24
212 H 5.385112668894294 50.16554176079757 49.8640342793197 H 0.0 **** 0.06
213 H 3.7809192153541176 50.60771983689745 50.494568749824 H 0.0 **** 0.06
214 H 5.041064164455747 51.8523285659088 50.31600858118742 H 0.0 **** 0.06
215 H 5.192957452318694 50.60706553948512 51.578038385579674 H 0.0 **** 0.06
216 C 102.59518219220578 1.0109205289762144 5.4923349457085155 C 0.0 **** -0.24
217 H 103.57822586761776 0.8828641891113733 5.039606112434058 H 0.0 **** 0.06
218 H 102.15734567375083 0.03326327301486742 5.694184363319115 H 0.0 **** 0.06
219 H 101.95027332062895 1.5653530019989006 4.8098161291035915 H 0.0 **** 0.06
220 H 102.69534720318015 1.564331943098665 6.426850089644072 H 0.0 **** 0.06
221 C 33.12696420762723 59.65372892274294 89.27997061564496 C 0.0 **** -0.24
222 H 33.14661430488426 59.40225875017941 90.3402961904399 H 0.0 **** 0.06
223 H 34.073297360815324 60.11700737575151 88.9994454284324 H 0.0 **** 0.06
224 H 32.31016893217197 60.349530224391515 89.08691685337848 H 0.0 **** 0.06
225 H 32.97776045108655 58.74703507533172 88.69430161411772 H 0.0 **** 0.06
226 C 44.99148949453465 102.2569904676617 9.129019028907805 C 0.0 **** -0.24
227 H 45.15952844591473 103.30321670889907 9.382635326229547 H 0.0 **** 0.06
228 H 44.700480325407625 101.70831672317809 10.024791597413753 H 0.0 **** 0.06
229 H 45.90877861427609 101.83077514714552 8.722823414328275 H 0.0 **** 0.06
230 H 44.19807153348282 102.18641075228652 8.38504178113152 H 0.0 **** 0.06
231 C 54.863908509800666 76.02250829877465 57.081911416140656 C 0.0 **** -0.24
232 H 55.337600880963805 75.773604474514 56.1321966484686 H 0.0 **** 0.06
233 H 54.79890763365489 77.10616160935882 57.18138056019501 H 0.0 **** 0.06
234 H 55.457848977716424 75.61754778157638 57.90126323742194 H 0.0 **** 0.06
235 H 53.862202654205475 75.5930857588433 57.11180115326966 H 0.0 **** 0.06
236 C 67.6689594318301 90.52280676892804 103.21630255447971 C 0.0 **** -0.24
237 H 68.33722424274065 91.13433641113971 103.82057338395796 H 0.0 **** 0.06
238 H 68.03551024741301 90.48901331526037 102.18963450883527 H 0.0 **** 0.06
239 H 66.66782117803919 90.95407611688722 103.2310562441634 H 0.0 **** 0.06
240 H 67.63404955461907 89.51184426112405 103.62313894265051 H 0.0 **** 0.06
241 C 11.446311440681342 24.012377290546283 56.53674127196314 C 0.0 **** -0.24
242 H 10.465216556738199 24.483857248655966 56.47328088820666 H 0.0 **** 0.06
243 H 12.216883805810284 24.783123074149344 56.588219266659564 H 0.0 **** 0.06
244 H 11.6091498533236 23.39331920416852 55.655653109213915 H 0.0 **** 0.06
245 H 11.493274430189018 23.392356439168665 57.43170345277474 H 0.0 **** 0.06
246 C 73.20369903939785 49.56920945835549 75.96462054109327 C 0.0 **** -0.24
247 H 73.18707239430768 50.31260980843979 76.76165516093118 H 0.0 **** 0.06
248 H 72.76062322320233 49.99309180092098 75.06338067640434 H 0.0 **** 0.06
249 H 72.63489302819139 48.692839802676076 76.27328961531967 H 0.0 **** 0.06
250 H 74.23503151393925 49.27927180551325 75.76042883790285 H 0.0 **** 0.06
251 C 104.53760868777553 74.97975261052761 53.93468844027897 C 0.0 **** -0.24
252 H 104.43250011378635 74.29833781783927 53.091066055661315 H 0.0 **** 0.06
253 H 104.12862022588652 75.95398385986954 53.66730555300061 H 0.0 **** 0.06
254 H 105.59383835588986 75.08527953319981 54.186447765556714 H 0.0 **** 0.06
255 H 103.99787340045219 74.58134959297462 54.793434930253156 H 0.0 **** 0.06
256 C 8.103407327443536 19.677232241898167 87.63278215598496 C 0.0 **** -0.24
257 H 7.8812081726169705 20.038215882964124 86.62932513901148 H 0.0 **** 0.06
258 H 8.599499613810018 18.708711010615303 87.56872919560699 H 0.0 **** 0.06
259 H 7.175727932089998 19.574496776032618 88.19549083383251 H 0.0 **** 0.06
260 H 8.757810340420972 20.38780401683826 88.13831176418834 H 0.0 **** 0.06
261 C 15.617144763179738 49.928783122535634 2.258111038820232 C 0.0 **** -0.24
262 H 16.13802406248064 50.16035938380304 3.186915041726536 H 0.0 **** 0.06
263 H 14.927071586676163 49.1022342835827 2.4249273873766697 H 0.0 **** 0.06
264 H 16.342022128521137 49.64896881406398 1.494864432710699 H 0.0 **** 0.06
265 H 15.060368120332583 50.80565272366857 1.926421097093879 H 0.0 **** 0.06
266 C 73.12909308461101 40.728591565427536 10.604995890154868 C 0.0 **** -0.24
267 H 72.88125180755117 39.667074744970435 10.624907526927814 H 0.0 **** 0.06
268 H 73.83609402518084 40.950964712928005 11.404460446145833 H 0.0 **** 0.06
269 H 72.2220203382553 41.31513963701056 10.747344240518217 H 0.0 **** 0.06
270 H 73.57646517216608 40.97937918644057 9.642608991154106 H 0.0 **** 0.06
271 C 81.14386295298215 21.683322815274963 49.183996270408926 C 0.0 **** -0.24
272 H 82.00217811931243 22.21496720193892 49.59447040667598 H 0.0 **** 0.06
273 H 80.22504047576771 22.162194021683064 49.52272379937944 H 0.0 **** 0.06
274 H 81.16128793163699 20.648226972231953 49.5252493681304 H 0.0 **** 0.06
275 H 81.18820814709085 21.707949934793646 48.095386287480125 H 0.0 **** 0.06
276 C 82.98123519512632 6.116625756768741 45.60234794100606 C 0.0 **** -0.24
277 H 83.91198021079174 6.671980888929625 45.713271563122106 H 0.0 **** 0.06
278 H 83.13575380598007 5.082680989031701 45.910135047027154 H 0.0 **** 0.06
279 H 82.66503864808065 6.142555121190441 44.55958664789242 H 0.0 **** 0.06
280 H 82.211408482053 6.57073588598908 46.22696508036162 H 0.0 **** 0.06
281 C 16.91666406045661 36.707644511585414 9.38722525710098 C 0.0 **** -0.24
282 H 15.977380628912726 36.54479984739177 8.858336822835113 H 0.0 **** 0.06
283 H 16.99988053667265 35.99412916751456 10.206915180644913 H 0.0 **** 0.06
284 H 16.93874151196063 37.723205242895375 9.78403219992903 H 0.0 **** 0.06
285 H 17.750192960239573 36.569768467788805 8.697875188108043 H 0.0 **** 0.06
286 C 19.365301511494366 98.0584021821405 9.28156536564535 C 0.0 **** -0.24
287 H 20.30055580213218 97.77885256505517 8.797416533793694 H 0.0 **** 0.06
288 H 18.890367451853024 97.16822962533682 9.69564775681107 H 0.0 **** 0.06
289 H 18.70085589653766 98.5179380431718 8.54860997373811 H 0.0 **** 0.06
290 H 19.568308415936073 98.76769688203672 10.083189266163743 H 0.0 **** 0.06
291 C 75.87547517580145 39.78164130699622 54.57907476198065 C 0.0 **** -0.24
292 H 75.04979545718936 39.8835234540567 55.28345090119178 H 0.0 **** 0.06
293 H 76.72280078759113 39.31161360613797 55.07924475232369 H 0.0 **** 0.06
294 H 76.16748105222311 40.76855807483017 54.21845914301964 H 0.0 **** 0.06
295 H 75.56116150745544 39.16443972171396 53.73780857421011 H 0.0 **** 0.06
296 C 38.74919744448769 44.799288453692675 74.66069417112112 C 0.0 **** -0.24
297 H 38.23540851775101 43.939702766986336 74.23076502001658 H 0.0 **** 0.06
298 H 39.68469061085149 44.4730871895763 75.11476460762651 H 0.0 **** 0.06
299 H 38.11640722393386 45.25732061169066 75.42135889336998 H 0.0 **** 0.06
300 H 38.959849498467506 45.52683508893288 73.87676476136801 H 0.0 **** 0.06
301 C 80.76950334366893 62.32833973860306 8.887922263630829 C 0.0 **** -0.24
302 H 80.41206690798279 63.168128679281054 8.290152626048785 H 0.0 **** 0.06
303 H 80.26529448828921 61.41589364027455 8.568492634298636 H 0.0 **** 0.06
304 H 80.55399752266601 62.514408470668684 9.940177643605798 H 0.0 **** 0.06
305 H 81.84421490120855 62.216666596515566 8.750624037412134 H 0.0 **** 0.06
306 C 52.29790864274443 16.766294909741276 9.430119986059736 C 0.0 **** -0.24
307 H 53.143649564644804 16.377285063432282 9.995977105676928 H 0.0 **** 0.06
308 H 51.36884015534258 16.49797263053793 9.934674921527346 H 0.0 **** 0.06
309 H 52.3031572815525 16.33942854449191 8.427744200988897 H 0.0 **** 0.06
310 H 52.37368673076516 17.85186872574309 9.362986484161866 H 0.0 **** 0.06
311 C 12.256423081380206 44.22157685410866 49.556136379552356 C 0.0 **** -0.24
312 H 13.037483342871838 44.981808303418234 49.52546460772822 H 0.0 **** 0.06
313 H 12.712755472194232 43.23801665856047 49.67291759272544 H 0.0 **** 0.06
314 H 11.685602459698984 44.25000997020396 48.628301773442246 H 0.0 **** 0.06
315 H 11.59272804265106 44.41712209991289 50.39841048106647 H 0.0 **** 0.06
316 C 52.885677768225726 88.42205456027514 1.215886375900567 C 0.0 **** -0.24
317 H 52.67263105765383 87.77285376381953 0.36709894969617096 H 0.0 **** 0.06
318 H 53.41618219115843 87.85667765427591 1.9817190566359386 H 0.0 **** 0.06
319 H 51.949557718604886 88.80157114009467 1.626454474075274 H 0.0 **** 0.06
320 H 53.50274852762053 89.25860112923557 0.8877625730465439 H 0.0 **** 0.06
321 C 11.88710381454497 60.164445526191855 54.341979953001754 C 0.0 **** -0.24
322 H 12.541439664228946 59.51528011146925 54.923675371555085 H 0.0 **** 0.06
323 H 12.408713218206762 60.4920092958788 53.4414126764102 H 0.0 **** 0.06
324 H 11.612049015712943 61.032895428588205 54.93928327980456 H 0.0 **** 0.06
325 H 10.98817769460997 59.61626164574008 54.06146091121957 H 0.0 **** 0.06
326 C 71.75275483513373 75.41111891796774 82.21791152238478 C 0.0 **** -0.24
327 H 72.83149704202324 75.36748309245311 82.07063343444463 H 0.0 **** 0.06
328 H 71.53701461806811 75.82433128146945 83.20408873180325 H 0.0 **** 0.06
329 H 71.33541039954544 74.40721806988779 82.144813086607 H 0.0 **** 0.06
330 H 71.30681025146654 76.04677707872332 81.45173861549925 H 0.0 **** 0.06
331 C 36.92158535673241 9.587204761226843 44.24065265741436 C 0.0 **** -0.24
332 H 37.94032751026518 9.529962262176468 44.62400031501045 H 0.0 **** 0.06
333 H 36.508073484895675 8.582540241572843 44.156505103618 H 0.0 **** 0.06
334 H 36.92980560207067 10.061653814631484 43.258972329760326 H 0.0 **** 0.06
335 H 36.30936588984241 10.177227781044508 44.92408440671528 H 0.0 **** 0.06
336 C 77.95050743028628 24.400556280243734 60.43661773741917 C 0.0 **** -0.24
337 H 77.69953423704865 23.808473779959428 59.55582915138908 H 0.0 **** 0.06
338 H 78.38428246343119 23.75191697945263 61.198713570086824 H 0.0 **** 0.06
339 H 77.04831708993697 24.869408184279905 60.82827338451378 H 0.0 **** 0.06
340 H 78.67041794267666 25.170887269761664 60.162118778126235 H 0.0 **** 0.06
341 C 39.003370681597175 58.10154883884269 80.87809355591776 C 0.0 **** -0.24
342 H 39.685774674876825 58.377050951549506 81.682715904698 H 0.0 **** 0.06
343 H 38.30064147640354 57.34985590905541 81.23914363908796 H 0.0 **** 0.06
344 H 39.57274842426986 57.69550027422423 80.04253433227544 H 0.0 **** 0.06
345 H 38.45485175321633 58.98331442341504 80.54920136230308 H 0.0 **** 0.06
346 C 83.32591232772154 59.45268602344069 29.84259786069225 C 0.0 **** -0.24
347 H 84.29777729721224 59.94059727286702 29.920327037259995 H 0.0 **** 0.06
348 H 83.42731313711187 58.53193777086693 29.26792730475455 H 0.0 **** 0.06
349 H 82.62499228468687 60.11945370117053 29.341203179931142 H 0.0 **** 0.06
350 H 82.95648026823312 59.2202072465073 30.84211841897752 H 0.0 **** 0.06
351 C 62.07636180269127 75.77880183619601 36.55513857922002 C 0.0 **** -0.24
352 H 63.09271233938675 75.39029631112396 36.618469000144664 H 0.0 **** 0.06
353 H 62.10566367323672 76.86897963036131 36.52996773891252 H 0.0 **** 0.06
354 H 61.50734457548259 75.45034948591524 37.425055339877076 H 0.0 **** 0.06
355 H 61.601703642099395 75.4064137922918 35.648245307917044 H 0.0 **** 0.06
356 C 56.02676024508992 101.60308534081668 8.499361615126787 C 0.0 **** -0.24
357 H 56.12658070677941 101.77331177745911 9.570850062810734 H 0.0 **** 0.06
358 H 57.001946229033905 101.35839802498052 8.078923629693975 H 0.0 **** 0.06
359 H 55.640847178973075 102.50447722924903 8.022118986556109 H 0.0 **** 0.06
360 H 55.337923167813955 100.7767146107643 8.324766099757454 H 0.0 **** 0.06
361 C 36.733066069147355 94.56603162986102 75.47609545926062 C 0.0 **** -0.24
362 H 37.51329488505115 94.37457580907154 76.21211402306791 H 0.0 **** 0.06
363 H 36.872645162327274 95.55874168411002 75.04936476671543 H 0.0 **** 0.06
364 H 35.757241502550585 94.51156004831392 75.95810681099326 H 0.0 **** 0.06
365 H 36.7893547497095 93.81787561792996 74.68459629173394 H 0.0 **** 0.06
366 C 49.37533398391483 10.493251693587894 27.871134373530367 C 0.0 **** -0.24
367 H 50.03209677077828 10.732716062625883 27.03425193926867 H 0.0 **** 0.06
368 H 49.78453850045045 9.647584647708129 28.422816859725245 H 0.0 **** 0.06
369 H 48.38457955420881 10.23727048630505 27.4939645874598 H 0.0 **** 0.06
370 H 49.29971930472837 11.356975852104142 28.53164228505733 H 0.0 **** 0.06
371 C 20.351008961386228 11.311613691621284 93.88829696021364 C 0.0 **** -0.24
372 H 20.402654297385652 10.290759724620068 94.26678558991031 H 0.0 **** 0.06
373 H 19.697923533949023 11.904561682925442 94.5288785923826 H 0.0 **** 0.06
374 H 19.955369726023065 11.302342991101645 92.87221802644133 H 0.0 **** 0.06
375 H 21.350474325772637 11.747764852325103 93.88418513626642 H 0.0 **** 0.06
376 C 36.51386515321366 89.0675403862105 14.165737448811 C 0.0 **** -0.24
377 H 36.30008689851749 88.31665415164325 13.405472099291924 H 0.0 **** 0.06
378 H 35.627607999100206 89.6808831422487 14.329788198409531 H 0.0 **** 0.06
379 H 37.335953011303104 89.69923652330546 13.829772815894984 H 0.0 **** 0.06
380 H 36.79153398214743 88.57338191906257 15.096530185155558 H 0.0 **** 0.06
381 C 91.6732914969631 31.45130282311706 38.17099690950067 C 0.0 **** -0.24
382 H 92.58575940132515 31.499603958583208 38.76421269887035 H 0.0 **** 0.06
383 H 91.74157713693941 30.621308129184598 37.46699006557844 H 0.0 **** 0.06
384 H 91.54740348479429 32.38475720047089 37.6213143667116 H 0.0 **** 0.06
385 H 90.81849048337165 31.299935520729917 38.83011364494297 H 0.0 **** 0.06
386 C 105.28708620598819 106.10371991753982 105.63737787982164 C 0.0 **** -0.24
387 H 104.7057009458678 107.02091897895309 105.72828300515711 H 0.0 **** 0.06
388 H 106.33185540785482 106.35226981458499 105.45685400395206 H 0.0 **** 0.06
389 H 104.90354097927664 105.51278366018028 104.80482267527583 H 0.0 **** 0.06
390 H 105.20316875732738 105.52831025072425 106.5596431954805 H 0.0 **** 0.06
391 C 3.4336044554727465 15.452778871045325 48.23349975302949 C 0.0 **** -0.24
392 H 3.3475589677084656 16.51529923837205 48.464833779170476 H 0.0 **** 0.06
393 H 2.957880912916309 15.25132606379114 47.27312501573323 H 0.0 **** 0.06
394 H 2.942463161477974 14.870860421144073 49.01232372325205 H 0.0 **** 0.06
395 H 4.487216177124907 15.177380100400228 48.18186073964716 H 0.0 **** 0.06
396 C 45.50367918996881 102.07333789756495 1.745292523304613 C 0.0 **** -0.24
397 H 45.0074023820747 101.52736706393824 0.9425547601190374 H 0.0 **** 0.06
398 H 45.817959713621974 103.05067204662788 1.378874147599447 H 0.0 **** 0.06
399 H 46.376049828769055 101.51309535144736 2.080461772584556 H 0.0 **** 0.06
400 H 44.812820682321615 102.20189132942659 2.578467318731043 H 0.0 **** 0.06
401 C 48.28406447254554 57.18669177105346 52.481465196977894 C 0.0 **** -0.24
402 H 47.79323193693 56.24258662507049 52.24548724261754 H 0.0 **** 0.06
403 H 49.2306548227196 56.98799660215704 52.98398250320079 H 0.0 **** 0.06
404 H 47.64151832134888 57.77625692507297 53.134573939393675 H 0.0 **** 0.06
405 H 48.47023374866296 57.73931821028145 51.55952657910544 H 0.0 **** 0.06
406 C 9.878041453932894 39.22753125660944 84.05586812299714 C 0.0 **** -0.24
407 H 9.423583281722813 38.877105694090716 83.12949920410182 H 0.0 **** 0.06
408 H 9.094223382993505 39.5063575459904 84.7615663108974 H 0.0 **** 0.06
409 H 10.50369716909944 40.09468002979199 83.84725224697601 H 0.0 **** 0.06
410 H 10.48828067757421 38.432555558872366 84.4851343135023 H 0.0 **** 0.06
411 C 50.65331198708168 77.0105163457439 32.31432937373552 C 0.0 **** -0.24
412 H 50.1156986994302 77.64145618514857 31.606858132310386 H 0.0 **** 0.06
413 H 51.65790113896077 77.40625656353956 32.46281173597343 H 0.0 **** 0.06
414 H 50.715999453781535 75.99573853665248 31.920659444045896 H 0.0 **** 0.06
415 H 50.12218651202568 76.99845386043893 33.26607352599217 H 0.0 **** 0.06
416 C 92.35604134698714 51.174614556983386 33.87792041387905 C 0.0 **** -0.24
417 H 91.90205232782967 52.13278999656865 33.62773359420646 H 0.0 **** 0.06
418 H 93.44018842789518 51.2584343112909 33.811339601405166 H 0.0 **** 0.06
419 H 92.00659186841794 50.414076147739934 33.17960307851979 H 0.0 **** 0.06
420 H 92.074578859129 50.89275135777632 34.89248914404271 H 0.0 **** 0.06
421 C 28.593459608654527 95.04704029583738 50.03581885186151 C 0.0 **** -0.24
422 H 28.336696863360505 95.7601607597141 50.819305172006096 H 0.0 **** 0.06
423 H 28.332362013589364 95.4666930598345 49.06433374698196 H 0.0 **** 0.06
424 H 28.040296617099514 94.12143867378543 50.19250009282888 H 0.0 **** 0.06
425 H 29.66390673825017 94.84194336709734 50.067739666824735 H 0.0 **** 0.06
426 C 62.41145385990265 37.39017458925764 4.045025623828451 C 0.0 **** -0.24
427 H 61.99527515677829 38.37942028001348 3.854384704546135 H 0.0 **** 0.06
428 H 61.8922508754234 36.93434577423989 4.888820099155396 H 0.0 **** 0.06
429 H 63.471943075355554 37.4817058604786 4.277845977234108 H 0.0 **** 0.06
430 H 62.28493073538009 36.767096829788414 3.160632253868755 H 0.0 **** 0.06
431 C 19.894843969283215 18.246797233081907 86.13286648298418 C 0.0 **** -0.24
432 H 20.184437300755548 19.162501499177722 86.64745181512853 H 0.0 **** 0.06
433 H 18.96449826085683 18.41507814464171 85.58937484783047 H 0.0 **** 0.06
434 H 19.750132265755894 17.44991671024681 86.86274776741209 H 0.0 **** 0.06
435 H 20.678247371277166 17.960964837323473 85.4315237552691 H 0.0 **** 0.06
436 C 104.45284428608794 28.98282547389303 21.523548213510736 C 0.0 **** -0.24
437 H 103.43313118558346 29.221789176181602 21.824882299426818 H 0.0 **** 0.06
438 H 104.62314282764022 27.91124373732569 21.633169157100724 H 0.0 **** 0.06
439 H 105.15465028017852 29.528744427209602 22.154860019910842 H 0.0 **** 0.06
440 H 104.60063792979678 29.27089791539771 20.482723532531253 H 0.0 **** 0.06
441 C 38.5809461218161 50.850997406223605 0.12122956818268449 C 0.0 **** -0.24
442 H 39.42383469875715 51.54023950402257 0.08238584123799342 H 0.0 **** 0.06
443 H 37.66154553056757 51.411537501097406 0.2962071524850103 H 0.0 **** 0.06
444 H 38.73192690415304 50.13776475045976 0.9315336399675971 H 0.0 **** 0.06
445 H 38.50481911689796 50.31460756546514 -0.8247341398042067 H 0.0 **** 0.06
446 C 86.95370349709698 6.770803647013167 30.924690982003682 C 0.0 **** -0.24
447 H 86.15599479138706 7.1222568756041085 31.578732367849852 H 0.0 **** 0.06
448 H 86.56219819802722 6.007712652301549 30.251405397368927 H 0.0 **** 0.06
449 H 87.75743946964926 6.346992099008332 31.527328515398324 H 0.0 **** 0.06
450 H 87.33930467609503 7.607122152122244 30.34081870277123 H 0.0 **** 0.06
451 C 100.79167434271162 13.01695079583206 32.229343144355994 C 0.0 **** -0.24
452 H 100.0875638364632 13.724099798406705 31.789895275723552 H 0.0 **** 0.06
453 H 101.03026207771225 13.326694995116785 33.24717130516353 H 0.0 **** 0.06
454 H 101.70273011033086 12.992915362566148 31.632595853388466 H 0.0 **** 0.06
455 H 100.34255449097247 12.023805741498098 32.24748093996459 H 0.0 **** 0.06
456 C 105.31695331956954 26.78505085884197 60.78642648572392 C 0.0 **** -0.24
457 H 105.3981794777474 27.074087262988456 59.738478020238745 H 0.0 **** 0.06
458 H 106.24245544665852 27.036759778328303 61.305210818027604 H 0.0 **** 0.06
459 H 105.1427729039434 25.711566860217033 60.85502650768291 H 0.0 **** 0.06
460 H 104.48508261869276 27.318782543513294 61.24624530080459 H 0.0 **** 0.06
461 C 28.712517427125604 36.24877221195295 24.971525757926198 C 0.0 **** -0.24
462 H 28.43606416408852 35.90826863391876 25.968623317609758 H 0.0 **** 0.06
463 H 28.35527377281595 37.268100691281525 24.82393800336054 H 0.0 **** 0.06
464 H 28.260866883055442 35.594077330532485 24.225931280348895 H 0.0 **** 0.06
465 H 29.79704825899337 36.22456648154804 24.867038215265616 H 0.0 **** 0.06
466 C 35.72800558879925 22.30655701013086 104.64137122153721 C 0.0 **** -0.24
467 H 35.818115949398305 22.454339425694144 103.56488981498717 H 0.0 **** 0.06
468 H 36.11138439642764 23.184034448662914 105.16216460204902 H 0.0 **** 0.06
469 H 36.30345616934153 21.428755266063263 104.9359360711561 H 0.0 **** 0.06
470 H 34.67999429729451 22.157417778597704 104.90097384743854 H 0.0 **** 0.06
471 C 1.2423635745416988 80.10590441855466 37.11678546727873 C 0.0 **** -0.24
472 H 1.0362201507139162 80.8712817406523 37.86513308770188 H 0.0 **** 0.06
473 H 0.6655700799352502 79.20972666634168 37.34608095799703 H 0.0 **** 0.06
474 H 2.305056111071906 79.86687795898203 37.12494381430494 H 0.0 **** 0.06
475 H 0.9605966174668481 80.47709221660193 36.13130450909193 H 0.0 **** 0.06
476 C 49.04202839652399 66.43740170035522 71.34863405923747 C 0.0 **** -0.24
477 H 48.2347272756989 66.40235293576706 70.61728655000476 H 0.0 **** 0.06
478 H 49.85562116961796 67.05247188014738 70.96263893880624 H 0.0 **** 0.06
479 H 49.407410973859186 65.42690913980789 71.53513908202339 H 0.0 **** 0.06
480 H 48.67110454164816 66.86744200583115 72.27897030713808 H 0.0 **** 0.06
481 C 87.56531419740098 50.25269168866822 87.34239371317442 C 0.0 **** -0.24
482 H 86.85367253010709 50.021545391368704 88.13543990684713 H 0.0 **** 0.06
483 H 87.59215397992743 49.428869686864545 86.62850808812034 H 0.0 **** 0.06
484 H 88.55631008248534 50.39389318679363 87.77332060002206 H 0.0 **** 0.06
485 H 87.25632081497722 51.16477662716784 86.83288531293337 H 0.0 **** 0.06
486 C 31.558616464184453 40.98388788695489 4.895649793917698 C 0.0 **** -0.24
487 H 30.54396430171205 41.26492858433994 5.1778143268848 H 0.0 **** 0.06
488 H 32.2574694927318 41.3409545849337 5.651284274643672 H 0.0 **** 0.06
489 H 31.803833360910033 41.42981540275399 3.9324701809719045 H 0.0 **** 0.06
490 H 31.626307644883525 39.898387484835226 4.820327090179944 H 0.0 **** 0.06
491 C 70.6421915331737 47.490587638299225 45.39904267728156 C 0.0 **** -0.24
492 H 71.72043200312763 47.538745961811586 45.54976742902494 H 0.0 **** 0.06
493 H 70.17698188189115 47.00514084819782 46.258270938673206 H 0.0 **** 0.06
494 H 70.42644931448328 46.91732447906092 44.496769765994145 H 0.0 **** 0.06
495 H 70.24454817675675 48.499309722489464 45.2929522928801 H 0.0 **** 0.06
496 C 74.59251980370118 42.065936433263005 37.795649976826496 C 0.0 **** -0.24
497 H 75.25926098268997 42.29591868281901 36.964409887622736 H 0.0 **** 0.06
498 H 73.74311741113002 42.748556500346155 37.778883644847454 H 0.0 **** 0.06
499 H 75.13167388858881 42.17920572075275 38.73583007592737 H 0.0 **** 0.06
500 H 74.2364098005508 41.03952227414476 37.7027285742885 H 0.0 **** 0.06
501 C 6.360528751803173 33.53826657244281 26.933395322166124 C 0.0 **** -0.24
502 H 6.147533369753944 32.53937823916203 26.55341407815391 H 0.0 **** 0.06
503 H 5.500188389622082 33.90488991167899 27.493046536785016 H 0.0 **** 0.06
504 H 6.564343069717751 34.20898134859044 26.09823715972189 H 0.0 **** 0.06
505 H 7.230984993083496 33.499597651319505 27.58860396951671 H 0.0 **** 0.06
506 C 62.29514163691415 81.49035301294965 15.646500649215056 C 0.0 **** -0.24
507 H 61.466468832603724 81.32319881207437 14.95836507617048 H 0.0 **** 0.06
508 H 63.23366434483276 81.23741051736957 15.15283685003152 H 0.0 **** 0.06
509 H 62.16746276655502 80.86236984924706 16.527949420879565 H 0.0 **** 0.06
510 H 62.3125370808652 82.53839580724284 15.945950844230197 H 0.0 **** 0.06
511 C 13.37188861546639 81.35388534161285 18.82146922246448 C 0.0 **** -0.24
512 H 13.449741901559804 81.00314430773125 19.850911466518195 H 0.0 **** 0.06
513 H 13.26158190389637 82.43870385746311 18.813790140216575 H 0.0 **** 0.06
514 H 12.503861409156741 80.89677865209177 18.34754317222804 H 0.0 **** 0.06
515 H 14.27286939815474 81.07632665146343 18.27481714990862 H 0.0 **** 0.06
516 C 47.37360055955227 63.646580056796864 4.344433113541015 C 0.0 **** -0.24
517 H 48.16646823784356 64.24862748740219 4.7880753509671194 H 0.0 **** 0.06
518 H 47.672529766962896 62.59751904115305 4.3441107981872165 H 0.0 **** 0.06
519 H 47.19791951648915 63.97492728174153 3.319956669685979 H 0.0 **** 0.06
520 H 46.45942272094649 63.76308443728904 4.926344882966305 H 0.0 **** 0.06
521 C 94.23108077850662 67.17532848795292 82.31687160834639 C 0.0 **** -0.24
522 H 93.99824602281541 66.11143803972442 82.36507753763604 H 0.0 **** 0.06
523 H 94.75943737070824 67.47269878308731 83.22229907283418 H 0.0 **** 0.06
524 H 93.30524921608631 67.74583027584083 82.23222284251437 H 0.0 **** 0.06
525 H 94.85857724288903 67.37030696463864 81.44781911380352 H 0.0 **** 0.06
526 C 2.974232733657228 94.4709248011151 61.41572366300579 C 0.0 **** -0.24
527 H 2.3489111108683254 95.10159145849187 62.04733440077595 H 0.0 **** 0.06
528 H 2.6404659908170496 94.54952604953061 60.38098199474092 H 0.0 **** 0.06
529 H 2.8951187991646155 93.43488120587008 61.74506142530328 H 0.0 **** 0.06
530 H 4.011642791373056 94.79677017290871 61.48880482479859 H 0.0 **** 0.06
531 C 29.96267231806874 60.04610417550281 60.98827667368758 C 0.0 **** -0.24
532 H 30.808132988870994 59.48312655952484 60.59365262925738 H 0.0 **** 0.06
533 H 30.1383836295945 61.11258798990444 60.84491158472318 H 0.0 **** 0.06
534 H 29.849582565016107 59.83507900025216 62.05144494329167 H 0.0 **** 0.06
535 H 29.05431544979686 59.75340898102501 60.4608887064945 H 0.0 **** 0.06
536 C 54.97876744613808 94.7387984371032 41.02434839794671 C 0.0 **** -0.24
537 H 54.246348793230425 94.63993216413314 40.22303629028221 H 0.0 **** 0.06
538 H 55.98071409901161 94.58676832400222 40.62099925592646 H 0.0 **** 0.06
539 H 54.7795229512584 93.99094582394099 41.79241990826418 H 0.0 **** 0.06
540 H 54.90836051266285 95.73490031480877 41.4595317492159 H 0.0 **** 0.06
541 C 44.63531615938525 10.622740431169518 104.98175200133748 C 0.0 **** -0.24
542 H 44.85551371959395 11.550710786439424 104.45460900978179 H 0.0 **** 0.06
543 H 45.566573496791115 10.16299468321364 105.31378416925658 H 0.0 **** 0.06
544 H 44.11202244250175 9.940882347902573 104.31102331375592 H 0.0 **** 0.06
545 H 44.00601214670943 10.836608045314733 105.84543758805776 H 0.0 **** 0.06
546 C 22.34507306491147 5.296507325253771 0.6766789860845108 C 0.0 **** -0.24
547 H 22.27082970422411 5.097909517857687 -0.3920859555842071 H 0.0 **** 0.06
548 H 21.355877441798107 5.221958079254009 1.1291037493203362 H 0.0 **** 0.06
549 H 22.742221530529815 6.299726398784941 0.8325003912023021 H 0.0 **** 0.06
550 H 23.011340086326562 4.566223548674671 1.1362206958610557 H 0.0 **** 0.06
551 C 102.70234688080413 64.6813404865882 48.93485927888037 C 0.0 **** -0.24
552 H 102.99890226630535 64.9690027510465 47.926532446611986 H 0.0 **** 0.06
553 H 102.06938507487209 65.45899196720632 49.3627859696432 H 0.0 **** 0.06
554 H 103.59146870400357 64.55565044010785 49.55297910306433 H 0.0 **** 0.06
555 H 102.1495522597692 63.74269829560916 48.89731399032962 H 0.0 **** 0.06
556 C 40.69369365787725 37.8012349375331 51.99190248204145 C 0.0 **** -0.24
557 H 41.225746773339125 36.850845012519514 51.962117605482334 H 0.0 **** 0.06
558 H 40.615527978735145 38.20618190392522 50.98362041593161 H 0.0 **** 0.06
559 H 41.23892782727509 38.50208526261688 52.62513094922838 H 0.0 **** 0.06
560 H 39.6941590744085 37.64479874173979 52.39952867594823 H 0.0 **** 0.06
561 C 15.497370918960314 64.18116831434429 91.20725986879035 C 0.0 **** -0.24
562 H 16.030968171568418 63.2555884760942 90.99084210244877 H 0.0 **** 0.06
563 H 15.428154894048589 64.31722542381942 92.28670478660739 H 0.0 **** 0.06
564 H 14.495350587923213 64.13044047418805 90.78258399540486 H 0.0 **** 0.06
565 H 16.035875862535534 65.02176574351033 90.76854795970726 H 0.0 **** 0.06
566 C 14.832751211606677 85.99121122272545 24.89073721351862 C 0.0 **** -0.24
567 H 15.317107026475526 85.32589164096679 25.604398852631647 H 0.0 **** 0.06
568 H 14.29691020726608 86.7740184114596 25.42930115244035 H 0.0 **** 0.06
569 H 14.129722605082776 85.4217445482956 24.283377220336302 H 0.0 **** 0.06
570 H 15.586703056250585 86.44448297754602 24.245986790064677 H 0.0 **** 0.06
571 C 0.24596596463928222 46.226166130731656 33.34489567501568 C 0.0 **** -0.24
572 H -0.15822929494483162 46.08902331988031 34.34752557618799 H 0.0 **** 0.06
573 H 0.8849043485810029 45.37975895095036 33.09250045667858 H 0.0 **** 0.06
574 H 0.8290100270409653 47.146352916854084 33.30993000331904 H 0.0 **** 0.06
575 H -0.5735017887863734 46.28877879954035 32.62835677329848 H 0.0 **** 0.06
576 C 105.70495213445773 95.22068442463197 4.644931171401765 C 0.0 **** -0.24
577 H 105.55737628812943 94.19142122706823 4.320050758313016 H 0.0 **** 0.06
578 H 104.77424261356931 95.77692911129968 4.527005730969336 H 0.0 **** 0.06
579 H 106.48471971617944 95.68448090010719 4.0397476335662645 H 0.0 **** 0.06
580 H 106.0044181742444 95.230929433218 5.692687256527051 H 0.0 **** 0.06
581 C 27.18290087001614 31.589809368917386 64.19302534882382 C 0.0 **** -0.24
582 H 27.270823003899153 31.118608969002878 65.172433144421 H 0.0 **** 0.06
583 H 27.063808963086416 30.82069726044734 63.43012012999486 H 0.0 **** 0.06
584 H 28.081919542278825 32.170577897270206 63.9878692417974 H 0.0 **** 0.06
585 H 26.315410489369526 32.248751019973305 64.18402599231518 H 0.0 **** 0.06
586 C 51.16678300921396 71.8144293247928 86.07811222144437 C 0.0 **** -0.24
587 H 50.604240160698716 71.82028304171553 85.1440527885714 H 0.0 **** 0.06
588 H 52.16802294842476 72.20502643548821 85.90225975374875 H 0.0 **** 0.06
589 H 51.23436469827709 70.79322195983514 86.45424647600218 H 0.0 **** 0.06
590 H 50.65608303066392 72.43798030879742 86.81186518116283 H 0.0 **** 0.06
591 C 25.38517748899133 24.380357784091757 27.834254691499638 C 0.0 **** -0.24
592 H 25.71780150848278 25.262143771122908 27.285519330012846 H 0.0 **** 0.06
593 H 26.23166431401694 23.714629738681083 27.999287657047034 H 0.0 **** 0.06
594 H 24.619846681735112 23.861114311516758 27.25792262459032 H 0.0 **** 0.06
595 H 24.970787380607476 24.686154868005048 28.79563378024457 H 0.0 **** 0.06
596 C 48.8509621202391 57.5688826507787 68.03065725205238 C 0.0 **** -0.24
597 H 49.45683855645001 57.4457958238519 68.92854761287731 H 0.0 **** 0.06
598 H 49.479440583439725 57.441117412931945 67.14877595903181 H 0.0 **** 0.06
599 H 48.41217720104669 58.566913967054305 68.02304021773455 H 0.0 **** 0.06
600 H 48.05689484689509 56.82291477385986 68.0233942331393 H 0.0 **** 0.06
601 C 42.7158685654062 30.329375343890838 12.135269111981373 C 0.0 **** -0.24
602 H 41.78265378166401 30.82928656172954 11.874070544863672 H 0.0 **** 0.06
603 H 43.34127858182859 31.008013933161543 12.715162789679798 H 0.0 **** 0.06
604 H 43.24008967550532 30.041277612774543 11.224115651799353 H 0.0 **** 0.06
605 H 42.49817629024568 29.440150725289918 12.726361600993805 H 0.0 **** 0.06
606 C 36.463890958757545 15.36731167055268 90.23895414550758 C 0.0 **** -0.24
607 H 36.410263402819126 14.973169273602565 91.25419431504996 H 0.0 **** 0.06
608 H 36.962777291517966 14.644358591902375 89.59463208649677 H 0.0 **** 0.06
609 H 37.02629028435236 16.30089384667015 90.24242056467287 H 0.0 **** 0.06
610 H 35.45557132577967 15.551820432376644 89.86766347077979 H 0.0 **** 0.06
611 C 5.425166583104772 95.97972839915595 3.68191261702367 C 0.0 **** -0.24
612 H 4.3486508180882115 96.0137215317197 3.8456652490973795 H 0.0 **** 0.06
613 H 5.735225514814454 96.85844886638588 3.1167529159742173 H 0.0 **** 0.06
614 H 5.678793047738187 95.07911652899064 3.120592125838698 H 0.0 **** 0.06
615 H 5.938395330664299 95.96406600482877 4.642599651766062 H 0.0 **** 0.06
616 C 17.304162458103747 14.76940077065207 86.73257305222234 C 0.0 **** -0.24
617 H 18.16204533287072 15.10716230706663 86.15220354196998 H 0.0 **** 0.06
618 H 16.85653974404329 13.901659877310607 86.24719753446459 H 0.0 **** 0.06
619 H 16.567957656863484 15.571906836152749 86.79286636804278 H 0.0 **** 0.06
620 H 17.62897520044271 14.498622195842827 87.73721047634314 H 0.0 **** 0.06
621 C 84.96208751229364 69.51371263141914 103.89282481459394 C 0.0 **** -0.24
622 H 85.7389570837488 68.85885217287061 104.28522649048429 H 0.0 **** 0.06
623 H 84.49694230943783 69.04559489612417 103.02457456783225 H 0.0 **** 0.06
624 H 85.40459904509265 70.46562381530298 103.59895518670805 H 0.0 **** 0.06
625 H 84.20787516553924 69.68563099090203 104.66103477354525 H 0.0 **** 0.06
626 C 64.71191788520147 83.98251129007039 42.12747016811389 C 0.0 **** -0.24
627 H 63.99815607121374 83.17770581875124 41.953352664546 H 0.0 **** 0.06
628 H 65.72185480368196 83.62026627939963 41.932501629497295 H 0.0 **** 0.06
629 H 64.63919125803886 84.31468753284454 43.16359493788872 H 0.0 **** 0.06
630 H 64.48922857185434 84.8158229520688 41.46215837386754 H 0.0 **** 0.06
631 C 7.682426767180161 11.432573858933907 78.86610887115665 C 0.0 **** -0.24
632 H 7.619289999067249 10.677366735278483 79.64981651783673 H 0.0 **** 0.06
633 H 8.302528039216483 11.05681636078495 78.05067123409624 H 0.0 **** 0.06
634 H 8.127874915591335 12.340787623262756 79.27183341168234 H 0.0 **** 0.06
635 H 6.6831256806389945 11.652633304575502 78.49238862644098 H 0.0 **** 0.06
636 C 98.25665950676955 18.486423395585344 40.846788414852085 C 0.0 **** -0.24
637 H 98.67165907935563 17.510430445297857 40.597004947679636 H 0.0 **** 0.06
638 H 98.96811571384369 19.036371558018185 41.46300493691254 H 0.0 **** 0.06
639 H 97.32443638067555 18.355195656065874 41.39571737832179 H 0.0 **** 0.06
640 H 98.06300224181443 19.043765809683045 39.929266703452996 H 0.0 **** 0.06
641 C 79.57980255532766 5.712718527109976 91.15298243413123 C 0.0 **** -0.24
642 H 78.60500565612153 6.1444615173851265 90.92416428860415 H 0.0 **** 0.06
643 H 79.48773729454433 5.03974317247819 92.00518654409295 H 0.0 **** 0.06
644 H 80.28276158101335 6.510405949622969 91.39233797532837 H 0.0 **** 0.06
645 H 79.9428059544984 5.157323715931529 90.28758258926862 H 0.0 **** 0.06
646 C 28.58704015826362 6.58504138193797 71.70104160452877 C 0.0 **** -0.24
647 H 27.96217461855693 7.44035626353201 71.44342904490784 H 0.0 **** 0.06
648 H 29.590492772520122 6.929564924601451 71.95081366467076 H 0.0 **** 0.06
649 H 28.63717182696294 5.902824062661907 70.85239146807612 H 0.0 **** 0.06
650 H 28.157098970868304 6.06599686174259 72.558224846864 H 0.0 **** 0.06
651 C 102.85341016009858 85.95071386615503 80.39798973784444 C 0.0 **** -0.24
652 H 102.23696797576606 85.80283224339517 81.28473985517513 H 0.0 **** 0.06
653 H 103.09586001919185 87.0088229702007 80.29787025541634 H 0.0 **** 0.06
654 H 102.30831218712392 85.61704704106444 79.51596803752128 H 0.0 **** 0.06
655 H 103.77384214596226 85.37454375844406 80.49685182484404 H 0.0 **** 0.06
656 C 94.6704548475547 43.076605175561326 12.281203388131729 C 0.0 **** -0.24
657 H 93.66428356676322 42.878791642047474 12.651513922306236 H 0.0 **** 0.06
658 H 94.61505763097551 43.726463815620974 11.406962759744601 H 0.0 **** 0.06
659 H 95.14727961014805 42.13609782642155 12.005327010688006 H 0.0 **** 0.06
660 H 95.25519858233193 43.565067418155536 13.061009859788044 H 0.0 **** 0.06
661 C 14.913552406788767 69.97840523587314 65.64562201952766 C 0.0 **** -0.24
662 H 13.868767498579174 70.02492015999451 65.33736142339515 H 0.0 **** 0.06
663 H 14.968295880559111 69.73395927385383 66.7076639913257 H 0.0 **** 0.06
664 H 15.387278788261142 70.9442019620459 65.4700238918686 H 0.0 **** 0.06
665 H 15.428112378749532 69.21025291648044 65.06912335145475 H 0.0 **** 0.06
666 C 68.2693432751075 77.6062804909042 83.80743039534943 C 0.0 **** -0.24
667 H 69.11142917379499 76.92234494391491 83.69753383825227 H 0.0 **** 0.06
668 H 68.38428363091697 78.43842533660796 83.11228982379865 H 0.0 **** 0.06
669 H 68.24192782042658 77.98655745530638 84.82856433821453 H 0.0 **** 0.06
670 H 67.34106030455845 77.07748312977591 83.59095917552182 H 0.0 **** 0.06
671 C 90.52268372939275 68.70265462853547 90.92987136249383 C 0.0 **** -0.24
672 H 89.85494303227937 68.2329168823837 90.2077401320205 H 0.0 **** 0.06
673 H 90.76795923285216 69.71054894497374 90.59613396747648 H 0.0 **** 0.06
674 H 91.43741018638622 68.11538733958662 91.01480298527564 H 0.0 **** 0.06
675 H 90.03089766700255 68.75113292407039 91.90142014219984 H 0.0 **** 0.06
676 C 98.74212169854394 67.76119459514592 67.98976399267873 C 0.0 **** -0.24
677 H 98.58998684234709 67.43995138466471 69.02032282454019 H 0.0 **** 0.06
678 H 98.00766553595875 67.27808766131517 67.3458769598493 H 0.0 **** 0.06
679 H 99.74652504728331 67.48504160279128 67.6672935446605 H 0.0 **** 0.06
680 H 98.62566422824912 68.84325354830494 67.92642520793903 H 0.0 **** 0.06
681 C 75.20483684248325 69.39330736507554 95.9236932699799 C 0.0 **** -0.24
682 H 75.61172916998271 69.11388789749589 94.9516705753343 H 0.0 **** 0.06
683 H 75.94859353982571 69.96813393915058 96.4766210669188 H 0.0 **** 0.06
684 H 74.95155672664538 68.49300130346144 96.48378156600288 H 0.0 **** 0.06
685 H 74.30887881940902 69.9982009347525 95.78279715468861 H 0.0 **** 0.06
686 C 44.7279932890766 21.937271480847812 53.190259265324926 C 0.0 **** -0.24
687 H 44.05467663398976 21.495467057918006 53.9251424288463 H 0.0 **** 0.06
688 H 44.27725675925099 21.871853250618926 52.199341609289945 H 0.0 **** 0.06
689 H 45.675395006241075 21.398663563106908 53.194156090358035 H 0.0 **** 0.06
690 H 44.90288809812915 22.98358249606636 53.44109941451114 H 0.0 **** 0.06
691 C 40.02111213597317 6.308395274256583 87.5131969589934 C 0.0 **** -0.24
692 H 40.55352823762561 6.2540773787696935 88.46296502827684 H 0.0 **** 0.06
693 H 38.96363292043429 6.49392306318623 87.6995563530212 H 0.0 **** 0.06
694 H 40.13680134458892 5.365781327331604 86.97708622659731 H 0.0 **** 0.06
695 H 40.432500805179984 7.120138130028039 86.91227128939516 H 0.0 **** 0.06
696 C 88.385761297567 100.27392122895007 74.63451588806242 C 0.0 **** -0.24
697 H 87.38183797331084 100.62465057841942 74.87293478819387 H 0.0 **** 0.06
698 H 89.02696366101907 100.390049532025 75.50876384600431 H 0.0 **** 0.06
699 H 88.78746854216047 100.85860151503587 73.80762477808206 H 0.0 **** 0.06
700 H 88.34477531102726 99.22231685704035 74.35118906544986 H 0.0 **** 0.06
701 C 55.986185802178156 78.23544986760035 91.59466429025946 C 0.0 **** -0.24
702 H 55.28761456623574 77.59377776563898 92.13028522110335 H 0.0 **** 0.06
703 H 55.45202058426024 79.09318848659262 91.18503919005514 H 0.0 **** 0.06
704 H 56.446228693539815 77.6730137142994 90.78219963412715 H 0.0 **** 0.06
705 H 56.759732607040746 78.5822391658011 92.28008623780892 H 0.0 **** 0.06
706 C 100.09302750183622 91.10280339590922 17.696220712431366 C 0.0 **** -0.24
707 H 100.2374439475035 92.12131628070273 18.058342458191355 H 0.0 **** 0.06
708 H 100.14570332721553 91.09430017157582 16.60757354501162 H 0.0 **** 0.06
709 H 99.11558698932538 90.74016588012522 18.016337632189153 H 0.0 **** 0.06
710 H 100.8717298754068 90.45853558462706 18.103438431043063 H 0.0 **** 0.06
711 C 90.50091082425695 94.48106280917456 44.16370855643669 C 0.0 **** -0.24
712 H 89.93419635071712 93.68528037887368 43.679877226370536 H 0.0 **** 0.06
713 H 90.7331070724477 95.25666070430358 43.43322682548779 H 0.0 **** 0.06
714 H 91.42799033391111 94.07237732461341 44.56683571580999 H 0.0 **** 0.06
715 H 89.91010901441143 94.9087542909091 44.972545892922255 H 0.0 **** 0.06
716 C 25.38416283540508 12.091030911823651 74.03945639030866 C 0.0 **** -0.24
717 H 24.663243098981525 12.900221143480167 74.15440678237547 H 0.0 **** 0.06
718 H 25.88467289133206 11.912123087400403 74.9920830063777 H 0.0 **** 0.06
719 H 26.12314708438825 12.366686306617794 73.28769243114914 H 0.0 **** 0.06
720 H 24.866220935089586 11.184665026399955 73.725491762221 H 0.0 **** 0.06
721 C 28.509299796481372 64.4870615183511 98.8951850801641 C 0.0 **** -0.24
722 H 29.383374338788542 63.86212203540093 98.71030113370298 H 0.0 **** 0.06
723 H 27.614833002697793 63.863555570981845 98.91640417383618 H 0.0 **** 0.06
724 H 28.418076411414546 65.22808454675854 98.09975440010004 H 0.0 **** 0.06
725 H 28.622429186030274 64.99529497411464 99.85284849091055 H 0.0 **** 0.06
726 C 12.224921167433735 91.10473827552997 66.07636791612909 C 0.0 **** -0.24
727 H 12.821175215411472 92.00436617853384 65.92196428691118 H 0.0 **** 0.06
728 H 11.256198618149739 91.37924275373658 66.4955572353829 H 0.0 **** 0.06
729 H 12.744008066193544 90.43877972349705 66.76595019763312 H 0.0 **** 0.06
730 H 12.077805180541787 90.59806097350403 65.12271614943369 H 0.0 **** 0.06
731 C 66.91929845395323 77.47642834082404 8.690301316300378 C 0.0 **** -0.24
732 H 66.49689579290117 76.4800427094305 8.557982001608238 H 0.0 **** 0.06
733 H 67.30253046162258 77.57600829382706 9.70591235171662 H 0.0 **** 0.06
734 H 66.14489605267562 78.22437537104018 8.518642088071473 H 0.0 **** 0.06
735 H 67.73133689440048 77.62366383021093 7.9785661349219765 H 0.0 **** 0.06
736 C 30.61484702698465 51.214449121498944 77.65152964223168 C 0.0 **** -0.24
737 H 29.639016712356636 51.16438106300083 77.16822528208773 H 0.0 **** 0.06
738 H 30.96020327036493 52.24938190428486 77.66445322668531 H 0.0 **** 0.06
739 H 31.325789695686638 50.60023064767151 77.0992100972585 H 0.0 **** 0.06
740 H 30.53278687778777 50.846317659867395 78.6738515258087 H 0.0 **** 0.06
741 C 51.25113274507827 95.07602761239696 97.54771368241902 C 0.0 **** -0.24
742 H 51.442052094557575 94.01290391728914 97.39850390729853 H 0.0 **** 0.06
743 H 51.313692480724946 95.59373836339921 96.59048091499145 H 0.0 **** 0.06
744 H 51.994139026516045 95.48569755004795 98.23293479685472 H 0.0 **** 0.06
745 H 50.25553799320405 95.21016618993852 97.97021293821095 H 0.0 **** 0.06
746 C 6.990008692537897 39.567843912153876 77.08960324230561 C 0.0 **** -0.24
747 H 7.938545506570788 39.94106314578886 77.47726040803886 H 0.0 **** 0.06
748 H 6.84430906819099 38.53823918128046 77.4169324974891 H 0.0 **** 0.06
749 H 7.002274888917215 39.60586333110848 76.000644225444 H 0.0 **** 0.06
750 H 6.175804911701457 40.18689525878693 77.46616842115293 H 0.0 **** 0.06
751 C 84.97021008406648 30.426814210558852 32.93717364945712 C 0.0 **** -0.24
752 H 85.74291059119189 31.02124018776511 33.42543221160926 H 0.0 **** 0.06
753 H 84.21869032994711 30.13392162705297 33.67114419056816 H 0.0 **** 0.06
754 H 85.41948358979765 29.53475328910021 32.50026592992981 H 0.0 **** 0.06
755 H 84.49953040502147 31.01871452011126 32.1508203771736 H 0.0 **** 0.06
756 C 9.101743486130076 44.917666439345645 53.54769872538091 C 0.0 **** -0.24
757 H 8.380181823842861 45.61386923055632 53.97399217010414 H 0.0 **** 0.06
758 H 9.998977215906947 45.46177699489671 53.25072717989812 H 0.0 **** 0.06
759 H 8.665587773853872 44.43208614595916 52.67464965076985 H 0.0 **** 0.06
760 H 9.362189636653255 44.164913886947055 54.29114950564744 H 0.0 **** 0.06
761 C 62.27743170324098 35.5236390810382 9.775193173403792 C 0.0 **** -0.24
762 H 62.299892994201585 34.87094445162472 10.648327730133019 H 0.0 **** 0.06
763 H 63.226129323869884 35.44958572433745 9.243424764397048 H 0.0 **** 0.06
764 H 62.11919252746175 36.55291459863696 10.095698924565681 H 0.0 **** 0.06
765 H 61.46533393468928 35.21870468940131 9.115450100619071 H 0.0 **** 0.06
766 C 5.734460425372683 32.49521561232763 95.22348475205625 C 0.0 **** -0.24
767 H 6.203194820781402 32.5385751883571 94.24062733722538 H 0.0 **** 0.06
768 H 5.178103635691633 31.56194680536686 95.32075885197517 H 0.0 **** 0.06
769 H 5.053427916366386 33.33773371990858 95.33937961806868 H 0.0 **** 0.06
770 H 6.503830095912965 32.54147241889755 95.99496279963785 H 0.0 **** 0.06
771 C 34.2927439641888 14.232310229686476 9.836272306498014 C 0.0 **** -0.24
772 H 34.30207734048951 13.484511007181169 9.042362370559758 H 0.0 **** 0.06
773 H 33.940504832709436 15.182884507697025 9.434953390952527 H 0.0 **** 0.06
774 H 35.30092083257504 14.354720174455707 10.230930223340508 H 0.0 **** 0.06
775 H 33.6274508283746 13.90527246718662 10.635591435491401 H 0.0 **** 0.06
776 C 53.740577404353076 28.54383741671046 57.36589267275161 C 0.0 **** -0.24
777 H 53.23284174640281 28.06428382799396 58.20180145435745 H 0.0 **** 0.06
778 H 54.591128409103874 29.115432614184925 57.736580683327645 H 0.0 **** 0.06
779 H 53.04673665978561 29.213215016826666 56.856325793263636 H 0.0 **** 0.06
780 H 54.08972062994616 27.783307597230532 56.66757175630113 H 0.0 **** 0.06
781 C 58.85442737449759 29.535030652682366 20.268743559356466 C 0.0 **** -0.24
782 H 58.81298509291387 28.827450313524963 19.4409650350631 H 0.0 **** 0.06
783 H 58.50068194853753 29.05108315711115 21.179341012701087 H 0.0 **** 0.06
784 H 58.22140180651599 30.39370798680565 20.04403131285008 H 0.0 **** 0.06
785 H 59.88268773688941 29.86845407997896 20.40981859575902 H 0.0 **** 0.06
786 C 97.35910643344857 81.44658563987454 31.58821153015458 C 0.0 **** -0.24
787 H 97.0898732198508 81.46530175794335 30.532299660561705 H 0.0 **** 0.06
788 H 96.59871948635708 80.9000373254587 32.147143004906354 H 0.0 **** 0.06
789 H 97.42443382696797 82.46685030180895 31.964446824545746 H 0.0 **** 0.06
790 H 98.3238579303017 80.95223027169608 31.707911526330577 H 0.0 **** 0.06
791 C 42.15153173661096 74.83755033989866 47.329045854640114 C 0.0 **** -0.24
792 H 42.79885225316647 75.44526154232376 46.697255602562954 H 0.0 **** 0.06
793 H 42.69762445100224 74.53093041443802 48.22070870500242 H 0.0 **** 0.06
794 H 41.830102896775756 73.95396874012052 46.777420279716345 H 0.0 **** 0.06
795 H 41.277710339528795 75.42111382804143 47.62011038703207 H 0.0 **** 0.06
796 C 106.83137310472858 28.4227045059057 78.85045437166517 C 0.0 **** -0.24
797 H 106.93820759557163 28.05441691639774 79.87119498012916 H 0.0 **** 0.06
798 H 107.13135677086352 29.47024790872959 78.81041232978285 H 0.0 **** 0.06
799 H 105.79073205521034 28.330465121267594 78.53933571997854 H 0.0 **** 0.06
800 H 107.46355838869893 27.83675399353558 78.18355448795015 H 0.0 **** 0.06
801 C 16.050403771180754 14.459277375682689 3.9528482156593014 C 0.0 **** -0.24
802 H 15.52249220542285 13.528536709929682 3.7441404805349094 H 0.0 **** 0.06
803 H 16.180687763782586 15.019330837662238 3.027110193180434 H 0.0 **** 0.06
804 H 17.02667789315298 14.234453204939115 4.383071027747803 H 0.0 **** 0.06
805 H 15.471721286749414 15.054294831165322 4.659470125306171 H 0.0 **** 0.06
806 C 27.963065103197636 22.405820484404877 15.729860603520223 C 0.0 **** -0.24
807 H 27.19192278930288 21.961975613719975 16.359147461330906 H 0.0 **** 0.06
808 H 28.946373043986796 22.131817170239472 16.11236209742097 H 0.0 **** 0.06
809 H 27.859612777586648 23.49101019011606 15.73922228831654 H 0.0 **** 0.06
810 H 27.854364062104708 22.03924499540072 14.709353288515388 H 0.0 **** 0.06
811 C 94.26911578266605 61.099261690341706 59.50466376514123 C 0.0 **** -0.24
812 H 93.1845529733962 61.17705970160239 59.57890443732509 H 0.0 **** 0.06
813 H 94.63020304567274 61.780270638210155 58.733987108846506 H 0.0 **** 0.06
814 H 94.54379304772213 60.07699877194941 59.24334468214999 H 0.0 **** 0.06
815 H 94.71873917073766 61.36247354677036 60.46292839923248 H 0.0 **** 0.06
816 C 8.978935059991556 34.40496687328735 1.4329770850662387 C 0.0 **** -0.24
817 H 9.709625869964754 34.67594335445719 2.19435632369754 H 0.0 **** 0.06
818 H 8.141112189454446 33.88640106226626 1.901184448716438 H 0.0 **** 0.06
819 H 9.44677120762887 33.750118564051775 0.6975691999930511 H 0.0 **** 0.06
820 H 8.617143470835487 35.30650068566757 0.938775376536543 H 0.0 **** 0.06
821 C 48.70750565314236 27.426355658107838 43.406265328984546 C 0.0 **** -0.24
822 H 48.55666229520014 26.585310192893672 42.729448870715316 H 0.0 **** 0.06
823 H 49.73866440657284 27.428656593965428 43.75799816490678 H 0.0 **** 0.06
824 H 48.03290190992462 27.33247500746714 44.257361050950266 H 0.0 **** 0.06
825 H 48.50073158864623 28.358083504346524 42.879996004783976 H 0.0 **** 0.06
826 C 10.66702138142033 65.98587336682257 79.77762418592249 C 0.0 **** -0.24
827 H 10.470515290406015 65.26658033661712 80.57295909712934 H 0.0 **** 0.06
828 H 11.585389162757851 66.5292857020531 79.99985685346712 H 0.0 **** 0.06
829 H 9.836053668477362 66.68823201665779 79.71018750229314 H 0.0 **** 0.06
830 H 10.776220297725708 65.45826393613393 78.83060964118835 H 0.0 **** 0.06
831 C 70.27584766535033 43.834854123859564 35.73217767112055 C 0.0 **** -0.24
832 H 70.128824498525 43.09431553501859 36.519186282046576 H 0.0 **** 0.06
833 H 69.33387742407565 44.00343874960994 35.21107119645393 H 0.0 **** 0.06
834 H 71.02187866188734 43.469515942612944 35.02574400973822 H 0.0 **** 0.06
835 H 70.61993154624726 44.76958900715465 36.173806072229695 H 0.0 **** 0.06
836 C 36.633642100641225 100.73651792034752 22.55300294514649 C 0.0 **** -0.24
837 H 35.68734135421221 100.56897990362175 22.03807999457146 H 0.0 **** 0.06
838 H 36.461765969170756 100.75747385496032 23.629406296846525 H 0.0 **** 0.06
839 H 37.05620139976895 101.68903594747131 22.234098996596316 H 0.0 **** 0.06
840 H 37.326428264228866 99.93167539832697 22.311314171962408 H 0.0 **** 0.06
841 C 40.60580004144755 27.25876190447758 82.74355816594918 C 0.0 **** -0.24
842 H 40.00170064734083 27.93823091484046 83.34373266922198 H 0.0 **** 0.06
843 H 40.40808294671693 26.230403204639288 83.04899576222753 H 0.0 **** 0.06
844 H 41.662119161664805 27.484806471587433 82.89006922221505 H 0.0 **** 0.06
845 H 40.35191154958941 27.380003687653016 81.6904091834996 H 0.0 **** 0.06
846 C 86.03064990489233 36.08666412076073 60.41826827467182 C 0.0 **** -0.24
847 H 86.41214460641766 35.96662448540666 61.43257050578785 H 0.0 **** 0.06
848 H 85.03167901545618 35.654483022443706 60.35262217485942 H 0.0 **** 0.06
849 H 86.69371777100852 35.57873673294906 59.7186745112254 H 0.0 **** 0.06
850 H 85.98511564460384 37.147505182828766 60.17155469646394 H 0.0 **** 0.06
851 C 20.852222753236667 41.2434121227422 63.027210018981904 C 0.0 **** -0.24
852 H 20.152958756901956 40.68799202792894 63.651881988394024 H 0.0 **** 0.06
853 H 21.734945475531394 41.501658039479025 63.61108439700428 H 0.0 **** 0.06
854 H 20.372895512547117 42.15477343341934 62.668426366790115 H 0.0 **** 0.06
855 H 21.145502968934533 40.629271659585584 62.17630763146988 H 0.0 **** 0.06
856 C 66.23114928376233 8.577003857196743 63.96890362299257 C 0.0 **** -0.24
857 H 65.34256790526194 9.046931432600559 63.54932783847164 H 0.0 **** 0.06
858 H 66.72638994949216 7.984604139528898 63.198779594316946 H 0.0 **** 0.06
859 H 65.94244721016358 7.928230827400284 64.79660431341892 H 0.0 **** 0.06
860 H 66.91283547552382 9.346309709145785 64.33056798916029 H 0.0 **** 0.06
861 C 30.76160786912334 103.523400158844 3.261592301470529 C 0.0 **** -0.24
862 H 30.672467655497712 103.18634041140066 2.2287644044752426 H 0.0 **** 0.06
863 H 30.968500002225937 104.59317571473854 3.278342973477521 H 0.0 **** 0.06
864 H 31.576650860500877 102.98735766351905 3.7484928052656414 H 0.0 **** 0.06
865 H 29.82876562066332 103.32365738042084 3.7900096792475466 H 0.0 **** 0.06
866 C 27.822143965764838 54.47241828673799 19.559167908234542 C 0.0 **** -0.24
867 H 28.52187089368246 54.07739797327804 18.823554677702703 H 0.0 **** 0.06
868 H 28.14895443705646 54.189027455090354 20.56053714103149 H 0.0 **** 0.06
869 H 26.82950472281881 54.06410409006759 19.372428776839 H 0.0 **** 0.06
870 H 27.78846629751459 55.559249029752266 19.481544008187257 H 0.0 **** 0.06
871 C 20.12917353639054 30.56656670396825 5.002074722638554 C 0.0 **** -0.24
872 H 19.328952338669296 31.175395103801577 5.423475653662308 H 0.0 **** 0.06
873 H 20.864966669442936 31.214521605518087 4.524080274487233 H 0.0 **** 0.06
874 H 19.713565855738494 29.882329270884554 4.263174836256667 H 0.0 **** 0.06
875 H 20.6091467645457 29.996008441398317 5.79735435229486 H 0.0 **** 0.06
876 C 53.388034709219106 25.6758417657676 51.54239713226363 C 0.0 **** -0.24
877 H 53.85077288470575 25.098780942358303 50.74170436946963 H 0.0 **** 0.06
878 H 52.80924727560137 26.493828578123498 51.11195614043996 H 0.0 **** 0.06
879 H 54.16338963568979 26.08162280417588 52.1918824469366 H 0.0 **** 0.06
880 H 52.72904148255389 25.029722185211824 52.122446377222786 H 0.0 **** 0.06
881 C 29.067399796826443 92.63820958374264 2.968897786641975 C 0.0 **** -0.24
882 H 29.682886982791956 91.81202647471807 2.614129322826045 H 0.0 **** 0.06
883 H 28.07395646378465 92.26710705548555 3.223534839257127 H 0.0 **** 0.06
884 H 28.98353956584438 93.39102520460119 2.1850337584343436 H 0.0 **** 0.06
885 H 29.52789131176346 93.08153303016928 3.851928705886678 H 0.0 **** 0.06
886 C 67.8462995299645 55.38569683248186 102.50796522678858 C 0.0 **** -0.24
887 H 68.58171958425517 56.066223279735134 102.93751478458856 H 0.0 **** 0.06
888 H 67.53660336187187 54.66291490736429 103.26404284572523 H 0.0 **** 0.06
889 H 68.28854422149828 54.85914196445104 101.66164060985497 H 0.0 **** 0.06
890 H 66.97951927059964 55.95321168213054 102.17036849969247 H 0.0 **** 0.06
891 C 69.64747940434684 47.08036576700158 10.207766251768447 C 0.0 **** -0.24
892 H 70.59635976134581 47.59838212699216 10.070471672892921 H 0.0 **** 0.06
893 H 69.5269232504119 46.81697859324589 11.25878344384256 H 0.0 **** 0.06
894 H 69.63699082617353 46.17384785237044 9.601819049951814 H 0.0 **** 0.06
895 H 68.83055575450986 47.73198938970671 9.900303996133715 H 0.0 **** 0.06
896 C 86.38611659997557 18.634487338388226 45.462838750265725 C 0.0 **** -0.24
897 H 86.60190354493882 18.22762625149909 46.45133802167655 H 0.0 **** 0.06
898 H 87.28807949577386 18.597380321920014 44.85070332305205 H 0.0 **** 0.06
899 H 86.05486073753504 19.668502979666073 45.560424251650836 H 0.0 **** 0.06
900 H 85.6005347172228 18.044712225634612 44.99091279205192 H 0.0 **** 0.06
901 C 75.0738005767422 101.76792242337706 89.00646750804684 C 0.0 **** -0.24
902 H 74.91383530860914 100.91481387228134 88.34687548560628 H 0.0 **** 0.06
903 H 75.30252150767865 101.41152541412583 90.01131309732807 H 0.0 **** 0.06
904 H 74.17347921497988 102.38057224744415 89.03349118195042 H 0.0 **** 0.06
905 H 75.90695187231913 102.36329044742104 88.63366793990639 H 0.0 **** 0.06
906 C 25.265058880835767 59.18080548740306 73.87747109546149 C 0.0 **** -0.24
907 H 25.208671348948542 59.93505098837312 73.09303445318699 H 0.0 **** 0.06
908 H 24.294369251500598 59.09285284495556 74.36657510673359 H 0.0 **** 0.06
909 H 26.016402194223446 59.474532337901735 74.61025172717035 H 0.0 **** 0.06
910 H 25.540792728670596 58.220785778381924 73.44002309475536 H 0.0 **** 0.06
911 C 41.36265176894298 66.84975107093436 80.59899922816447 C 0.0 **** -0.24
912 H 42.31308596355339 67.35003005706281 80.7839978022553 H 0.0 **** 0.06
913 H 41.02375823017667 66.36432841566895 81.51398759055311 H 0.0 **** 0.06
914 H 41.49208825887618 66.10221631114428 79.81641397363427 H 0.0 **** 0.06
915 H 40.622083829079116 67.58381077356425 80.28063589574731 H 0.0 **** 0.06
916 C 28.62012836320065 106.51908869301589 5.2036578907220985 C 0.0 **** -0.24
917 H 29.473028105821783 106.09641154110012 5.735265630603067 H 0.0 **** 0.06
918 H 28.689342723236138 106.26420084258233 4.145224448062351 H 0.0 **** 0.06
919 H 28.621655205034983 107.60252585192059 5.317276711095104 H 0.0 **** 0.06
920 H 27.697197726969847 106.11096119290565 5.616225113912151 H 0.0 **** 0.06
921 C 65.28670258442085 100.1123813067145 54.80597437344144 C 0.0 **** -0.24
922 H 66.01781530040545 100.0093332950882 55.60800431343246 H 0.0 **** 0.06
923 H 64.54424412455373 99.31769333842723 54.88729002254618 H 0.0 **** 0.06
924 H 65.79232234467491 100.04132014893968 53.84298544583715 H 0.0 **** 0.06
925 H 64.79336364706903 101.08065870267203 54.886542691871746 H 0.0 **** 0.06
926 C 3.7106537816548855 0.2751783092296969 70.14001630310344 C 0.0 **** -0.24
927 H 2.9798599825142986 1.0550300222453117 70.35110958962868 H 0.0 **** 0.06
928 H 3.2394971222848135 -0.7028212852820754 70.24566654325454 H 0.0 **** 0.06
929 H 4.541245505596324 0.3556769401508353 70.84172998852092 H 0.0 **** 0.06
930 H 4.082163035465347 0.3913787145353602 69.12249628335174 H 0.0 **** 0.06
931 C 7.594517541833669 2.2791857161988247 69.69411109214617 C 0.0 **** -0.24
932 H 8.500994438183243 2.8081358929601095 69.3996929247402 H 0.0 **** 0.06
933 H 7.305285347007359 1.5864972965175212 68.90313495809352 H 0.0 **** 0.06
934 H 6.791824550473752 2.998094018349761 69.85860585391579 H 0.0 **** 0.06
935 H 7.779852088700856 1.7237534832669894 70.6136255615904 H 0.0 **** 0.06
936 C 70.54323273603421 54.363198075087496 76.07650107288661 C 0.0 **** -0.24
937 H 69.9257774484526 54.22022170471905 76.96310550378273 H 0.0 **** 0.06
938 H 71.05500326558678 53.43165546100823 75.83591643995436 H 0.0 **** 0.06
939 H 71.27950286342724 55.143445036433945 76.26901257537862 H 0.0 **** 0.06
940 H 69.91187011514512 54.65766066199012 75.23737009622488 H 0.0 **** 0.06
941 C 45.768031745048944 28.962845740697738 88.13956463903057 C 0.0 **** -0.24
942 H 44.792419604592936 28.544278360665096 88.38652617990522 H 0.0 **** 0.06
943 H 45.73033449376911 30.049088757080312 88.22616006619667 H 0.0 **** 0.06
944 H 46.032409140161775 28.688858271751783 87.11816012903839 H 0.0 **** 0.06
945 H 46.516348046432626 28.56891827284288 88.82616168237675 H 0.0 **** 0.06
946 C 79.42506887206301 98.73036773610073 83.98539184955982 C 0.0 **** -0.24
947 H 80.19599511493544 97.96251320713793 84.05497552864043 H 0.0 **** 0.06
948 H 79.31638231144186 99.22302687561063 84.9520365356083 H 0.0 **** 0.06
949 H 78.47816211425541 98.27007336655839 83.70237874818363 H 0.0 **** 0.06
950 H 79.71252258695009 99.46485226925057 83.23265048101857 H 0.0 **** 0.06
951 C 39.340960284395436 57.570584531949294 95.16895985992642 C 0.0 **** -0.24
952 H 39.85914040699596 58.51276825921633 94.9893522062651 H 0.0 **** 0.06
953 H 39.32724463983163 57.36280599751581 96.23893353887956 H 0.0 **** 0.06
954 H 39.861507283626096 56.76574083594278 94.64940891896379 H 0.0 **** 0.06
955 H 38.31870691407055 57.6408974260404 94.79931843776455 H 0.0 **** 0.06
956 C 101.97656442561738 42.276790622974545 95.0686962462458 C 0.0 **** -0.24
957 H 101.59310315780534 42.96997287596263 95.81745490645488 H 0.0 **** 0.06
958 H 103.06500308488258 42.3288112537017 95.0506732304739 H 0.0 **** 0.06
959 H 101.58274945729043 42.547381165879465 94.08928917534367 H 0.0 **** 0.06
960 H 101.66439920504908 41.263087704040586 95.31927150813888 H 0.0 **** 0.06
961 C 41.080446380299115 86.37178150044357 70.0204923968102 C 0.0 **** -0.24
962 H 41.300685757302 87.43530719924368 69.92474041308571 H 0.0 **** 0.06
963 H 41.02582191805469 85.92117398738048 69.02884840636199 H 0.0 **** 0.06
964 H 40.125312603323856 86.24393326227798 70.53138776196192 H 0.0 **** 0.06
965 H 41.86854798827925 85.88811684940504 70.59712229726324 H 0.0 **** 0.06
966 C 9.722381941828433 35.338791519536194 24.691964046940598 C 0.0 **** -0.24
967 H 10.58651815046684 34.71385869886018 24.918011170645002 H 0.0 **** 0.06
968 H 10.021616683164671 36.137218281706836 24.01159424570369 H 0.0 **** 0.06
969 H 9.337158669453045 35.77189244256356 25.614117638830066 H 0.0 **** 0.06
970 H 8.947750719943079 34.73245080827774 24.223377788982276 H 0.0 **** 0.06
971 C 29.93375105285744 72.61569150086683 105.2941160000097 C 0.0 **** -0.24
972 H 29.994184124269736 72.79587073509514 106.36774024813462 H 0.0 **** 0.06
973 H 29.198368586503378 71.83450162990128 105.09834118181499 H 0.0 **** 0.06
974 H 30.908985326956433 72.2977927231895 104.92449428068329 H 0.0 **** 0.06
975 H 29.634388111918362 73.53307563804384 104.78885883007212 H 0.0 **** 0.06
976 C 104.18264494170278 80.44024788252742 3.372362721986633 C 0.0 **** -0.24
977 H 103.49857306936941 79.99548281835148 2.649556784136905 H 0.0 **** 0.06
978 H 104.55834005267985 81.38579059130842 2.9814242697696045 H 0.0 **** 0.06
979 H 105.01756592574552 79.76120326488622 3.5467131951701845 H 0.0 **** 0.06
980 H 103.65542303932148 80.61735199075727 4.309709989910459 H 0.0 **** 0.06
981 C 70.6180334656972 50.999037419274586 26.447111940684245 C 0.0 **** -0.24
982 H 70.64138243935089 50.381127328625574 27.345298279008865 H 0.0 **** 0.06
983 H 69.98248817520133 51.86796643353694 26.621869839860263 H 0.0 **** 0.06
984 H 70.21846054167584 50.41791363469925 25.61697143527894 H 0.0 **** 0.06
985 H 71.6282534329499 51.32989909984525 26.20655038247663 H 0.0 **** 0.06
986 C 56.64132521035998 38.7952854892576 13.832829637714383 C 0.0 **** -0.24
987 H 57.50013727920839 38.98770009405055 14.474744032309758 H 0.0 **** 0.06
988 H 55.789848948710755 38.49710618622931 14.44473976025543 H 0.0 **** 0.06
989 H 56.88231398274405 37.99653253877297 13.131596559869777 H 0.0 **** 0.06
990 H 56.39120523766741 39.701230640592954 13.27937850303772 H 0.0 **** 0.06
991 C 31.369155923887433 85.83807899889352 105.6507136253984 C 0.0 **** -0.24
992 H 31.480103147446357 85.99654792902933 106.72279102827298 H 0.0 **** 0.06
993 H 32.340818757606854 85.93344906753597 105.16628242758628 H 0.0 **** 0.06
994 H 30.684536982542113 86.58238610218724 105.24263936757569 H 0.0 **** 0.06
995 H 30.969435306627844 84.83984910257439 105.46972674567758 H 0.0 **** 0.06
996 C 2.521571836661849 90.02288988058959 85.19335846372701 C 0.0 **** -0.24
997 H 3.11417781918567 89.44709335796163 84.48276983386711 H 0.0 **** 0.06
998 H 2.8576489547046435 89.80409290910613 86.20742345740189 H 0.0 **** 0.06
999 H 1.470354037374932 89.75228673344198 85.09244860641599 H 0.0 **** 0.06
1000 H 2.6440700344190304 91.08675090251836 84.99125550957231 H 0.0 **** 0.06
1001 C 15.912353913435812 65.71475448195633 98.10928443756717 C 0.0 **** -0.24
1002 H 15.933016135300996 64.92027620974618 98.85528313489607 H 0.0 **** 0.06
1003 H 15.789255599166736 65.27860121343565 97.11746495597629 H 0.0 **** 0.06
1004 H 16.84852302593963 66.27197098609093 98.14685939402955 H 0.0 **** 0.06
1005 H 15.08042370003681 66.38667517319944 98.31681117131609 H 0.0 **** 0.06
1006 C 2.541810693211346 94.83006927945553 6.341151178452108 C 0.0 **** -0.24
1007 H 2.59810600665827 93.98275686786948 7.024639458928405 H 0.0 **** 0.06
1008 H 1.8772895216803818 94.58460806792797 5.512731529821366 H 0.0 **** 0.06
1009 H 3.537263865997261 95.05192304244373 5.955880341401581 H 0.0 **** 0.06
1010 H 2.154611507799416 95.69914911274786 6.872136770017789 H 0.0 **** 0.06
1011 C 27.504622739012603 91.66613436428568 21.891805172259097 C 0.0 **** -0.24
1012 H 26.886490215276183 90.8019638184217 21.649895838789178 H 0.0 **** 0.06
1013 H 27.16598723390169 92.52710356882857 21.31633172791041 H 0.0 **** 0.06
1014 H 28.54431605475503 91.4497640162653 21.645394119101553 H 0.0 **** 0.06
1015 H 27.42184627977082 91.88567012975166 22.956587236938873 H 0.0 **** 0.06
1016 C 19.25974606380599 105.29141486625127 53.239259497155444 C 0.0 **** -0.24
1017 H 20.041548021546788 105.78137310502055 52.659602449987496 H 0.0 **** 0.06
1018 H 19.688672089610222 104.46071184100758 53.80076168950944 H 0.0 **** 0.06
1019 H 18.490279419821718 104.91544479954891 52.565471497332695 H 0.0 **** 0.06
1020 H 18.817517384375748 106.00819850635786 53.93144641732292 H 0.0 **** 0.06
1021 C 93.89095624890155 92.19769498260044 3.899895906018884 C 0.0 **** -0.24
1022 H 94.85106971053608 92.69431879441922 3.7549555730024053 H 0.0 **** 0.06
1023 H 93.92300165365486 91.60542575586355 4.814144199413079 H 0.0 **** 0.06
1024 H 93.68778710961448 91.5460987478033 3.0505642191861284 H 0.0 **** 0.06
1025 H 93.10343962182185 92.94793019016602 3.978987355529881 H 0.0 **** 0.06
1026 C 39.2521111550177 83.90873627360082 34.606169205174325 C 0.0 **** -0.24
1027 H 39.38350866760001 84.1315132122843 35.6656006051312 H 0.0 **** 0.06
1028 H 39.04124474091569 84.8313979499456 34.06506892363325 H 0.0 **** 0.06
1029 H 38.420118568879246 83.21587345918564 34.48243909482957 H 0.0 **** 0.06
1030 H 40.16269154767565 83.45647268333218 34.214750445181295 H 0.0 **** 0.06
1031 C 9.451790252407008 76.25196712008477 23.103772761939297 C 0.0 **** -0.24
1032 H 8.729641199416122 76.43319254058451 22.307610212734232 H 0.0 **** 0.06
1033 H 9.612190845330545 75.17942953973161 23.211120198468564 H 0.0 **** 0.06
1034 H 9.067313370483475 76.65756668320051 24.040198028928927 H 0.0 **** 0.06
1035 H 10.394484062192888 76.7388466032597 22.856571632076395 H 0.0 **** 0.06
1036 C 77.6659479162995 27.362851753408563 22.28163239462262 C 0.0 **** -0.24
1037 H 78.2798490954043 26.5687601667517 21.854423210185132 H 0.0 **** 0.06
1038 H 78.05749792588176 27.63629757439969 23.261918436364198 H 0.0 **** 0.06
1039 H 76.63936116143162 27.012941247786898 22.384379285164925 H 0.0 **** 0.06
1040 H 77.69001929364043 28.232072732590808 21.62503500968188 H 0.0 **** 0.06
1041 C 2.147753677691412 69.74567301282116 106.55726831414923 C 0.0 **** -0.24
1042 H 2.960599915734008 70.05123959935565 105.89897830886464 H 0.0 **** 0.06
1043 H 1.200597898364606 69.81256949089453 106.02099641745667 H 0.0 **** 0.06
1044 H 2.119999025818913 70.40015300520585 107.42799576191575 H 0.0 **** 0.06
1045 H 2.30981574553374 68.71735432562247 106.88077454722233 H 0.0 **** 0.06
1046 C 41.041021223059886 88.30702918150001 16.81538708774177 C 0.0 **** -0.24
1047 H 40.21538660068023 88.66259732126449 16.199156235242558 H 0.0 **** 0.06
1048 H 41.68266802352872 89.14747643549224 17.082331951179114 H 0.0 **** 0.06
1049 H 41.619340201679336 87.57024681281548 16.258312958204645 H 0.0 **** 0.06
1050 H 40.64597470405607 87.84830952684608 17.722221288241755 H 0.0 **** 0.06
1051 C 80.61986954631953 29.736336479352758 30.708832907596758 C 0.0 **** -0.24
1052 H 81.33139648838883 30.107382597838466 31.446445198729165 H 0.0 **** 0.06
1053 H 81.1241755162244 29.605750930471743 29.751057026472992 H 0.0 **** 0.06
1054 H 79.80601053729782 30.451814288891683 30.59740732817651 H 0.0 **** 0.06
1055 H 80.2186857743892 28.77908777466655 31.041710069295476 H 0.0 **** 0.06
1056 C 73.50198891455958 60.14472781648149 23.741774282786256 C 0.0 **** -0.24
1057 H 72.47227956443385 60.44052798404178 23.5374860348074 H 0.0 **** 0.06
1058 H 74.12129941720454 61.03555400628767 23.846983179603257 H 0.0 **** 0.06
1059 H 73.87517947090825 59.53700151653112 22.918045434458904 H 0.0 **** 0.06
1060 H 73.53715471630156 59.56633564029545 24.665337812658397 H 0.0 **** 0.06
1061 C 26.543060873719753 60.23216964346199 86.14683191421406 C 0.0 **** -0.24
1062 H 26.146530590711762 59.21680587933366 86.12323321622085 H 0.0 **** 0.06
1063 H 26.917372686504734 60.49870648989014 85.15789585378721 H 0.0 **** 0.06
1064 H 27.355870454558584 60.2869178343675 86.87031438203533 H 0.0 **** 0.06
1065 H 25.75182012953431 60.924458739564955 86.43434294737108 H 0.0 **** 0.06
1066 C 91.52073626554987 75.64678590327497 60.256261451889166 C 0.0 **** -0.24
1067 H 90.46856056788327 75.52857190059545 60.51322917559742 H 0.0 **** 0.06
1068 H 91.73872573997745 76.70322575562857 60.096579957020154 H 0.0 **** 0.06
1069 H 91.73752876257774 75.08917427991459 59.34563367108089 H 0.0 **** 0.06
1070 H 92.1388963968489 75.26721773736466 61.07016733795227 H 0.0 **** 0.06
1071 C 48.14518022968008 63.53654667502343 29.578630236173538 C 0.0 **** -0.24
1072 H 48.384436379277815 62.696966752169146 28.925063246596793 H 0.0 **** 0.06
1073 H 47.96888951344806 63.1693505464213 30.589758468640085 H 0.0 **** 0.06
1074 H 47.249189354039004 64.03785094472352 29.211319564411298 H 0.0 **** 0.06
1075 H 48.97781273862654 64.23963046765834 29.586111710486392 H 0.0 **** 0.06
1076 C 94.05048851194738 44.086029248418015 89.30697943104803 C 0.0 **** -0.24
1077 H 95.05324267624412 44.5034611475737 89.3919167674718 H 0.0 **** 0.06
1078 H 93.60499540963252 44.0075218956542 90.29805518059811 H 0.0 **** 0.06
1079 H 94.10626790141053 43.096479327663424 88.8526146525437 H 0.0 **** 0.06
1080 H 93.4379402466682 44.73771195068773 88.68275426912805 H 0.0 **** 0.06
1081 C 88.75929035950418 24.19195651764656 100.02904804625172 C 0.0 **** -0.24
1082 H 87.77751198817481 23.760683337116973 99.83576498680128 H 0.0 **** 0.06
1083 H 89.08608833287406 23.915335097227057 101.03198345393105 H 0.0 **** 0.06
1084 H 88.70182726563644 25.27727099374252 99.95143266063667 H 0.0 **** 0.06
1085 H 89.47287692731726 23.812615921918905 99.2969444504505 H 0.0 **** 0.06
1086 C 87.6441338084057 54.10827367702774 24.706901768667308 C 0.0 **** -0.24
1087 H 86.8563518907409 54.265090281436585 23.9704984271051 H 0.0 **** 0.06
1088 H 87.86432790834743 55.05068088852863 25.208475210432596 H 0.0 **** 0.06
1089 H 88.54165185838778 53.74433848116922 24.206109135264796 H 0.0 **** 0.06
1090 H 87.31423363577888 53.37300149312017 25.441110470770923 H 0.0 **** 0.06
1091 C 56.46081647535056 89.36042396281586 59.5493478735886 C 0.0 **** -0.24
1092 H 55.95379091007422 88.40937346758956 59.71187089834592 H 0.0 **** 0.06
1093 H 57.4734476271457 89.17587397345272 59.189991250116975 H 0.0 **** 0.06
1094 H 56.502525655750865 89.91404309793515 60.48784984322111 H 0.0 **** 0.06
1095 H 55.911876038229046 89.94268144232173 58.80949091783094 H 0.0 **** 0.06
1096 C 102.75364575231896 33.394145796336204 86.61406455317749 C 0.0 **** -0.24
1097 H 102.6004840332437 33.24868221153241 85.54444192412495 H 0.0 **** 0.06
1098 H 103.30108831128217 34.322805805765256 86.77947314251357 H 0.0 **** 0.06
1099 H 103.32603681142709 32.557276418003994 87.01502073038615 H 0.0 **** 0.06
1100 H 101.78789424078198 33.447305663144334 87.11594772775547 H 0.0 **** 0.06
1101 C 30.92517561782853 19.722856319432367 4.103623741205496 C 0.0 **** -0.24
1102 H 30.367357482093155 19.939349068404766 3.1928144848916276 H 0.0 **** 0.06
1103 H 31.990765914569238 19.68829468897104 3.8773351856279987 H 0.0 **** 0.06
1104 H 30.606328448014466 18.76048728269015 4.50335615635494 H 0.0 **** 0.06
1105 H 30.734437709356115 20.503830042313297 4.839794786847818 H 0.0 **** 0.06
1106 C 44.60150438343934 74.01208287795086 53.427338268699245 C 0.0 **** -0.24
1107 H 45.43816019525122 73.7606671005411 54.079321301522185 H 0.0 **** 0.06
1108 H 44.979415486362846 74.31519003932024 52.45097258481178 H 0.0 **** 0.06
1109 H 44.03177784577519 74.83116398129764 53.86705017339315 H 0.0 **** 0.06
1110 H 43.955162985915095 73.14101873026365 53.3128226550184 H 0.0 **** 0.06
1111 C 83.79906213411996 14.258059074281249 32.87369163267829 C 0.0 **** -0.24
1112 H 84.7631541624585 13.853010757219351 33.18273236195006 H 0.0 **** 0.06
1113 H 83.26982940794372 14.641671574335817 33.74710217200891 H 0.0 **** 0.06
1114 H 83.20763559619587 13.470551712257702 32.407302864353255 H 0.0 **** 0.06
1115 H 83.95555844177491 15.066473040514751 32.15980056816056 H 0.0 **** 0.06
1116 C 93.59832005922115 88.70611554104835 85.94019689024921 C 0.0 **** -0.24
1117 H 94.14897424060788 87.77453592383196 86.06839622189929 H 0.0 **** 0.06
1118 H 92.95346785968974 88.86904121587602 86.80460515060915 H 0.0 **** 0.06
1119 H 92.98933168536972 88.64740039245979 85.03774997892404 H 0.0 **** 0.06
1120 H 94.30190802385656 89.53462843262108 85.8507645993694 H 0.0 **** 0.06
1121 C 43.35550104478665 19.563351862952672 66.14312453525235 C 0.0 **** -0.24
1122 H 43.309943017482425 19.318352520817648 65.0818175519445 H 0.0 **** 0.06
1123 H 42.62090982650838 18.966961209217967 66.6847209365057 H 0.0 **** 0.06
1124 H 43.13753387212242 20.6220462039377 66.28160660804755 H 0.0 **** 0.06
1125 H 44.352740687458265 19.343853666136763 66.52370608578387 H 0.0 **** 0.06
1126 C 9.24669301406361 56.32045444844107 18.682144980897714 C 0.0 **** -0.24
1127 H 10.261104667107077 55.94461556099182 18.54804858375713 H 0.0 **** 0.06
1128 H 8.560166891589319 55.47979700074296 18.793287910204747 H 0.0 **** 0.06
1129 H 8.959668456687083 56.91177533421043 17.81250066796487 H 0.0 **** 0.06
1130 H 9.20598327802115 56.94326278316814 19.575354457536108 H 0.0 **** 0.06
1131 C 58.1483989612698 94.42074891590454 76.12395608320861 C 0.0 **** -0.24
1132 H 57.40777503879534 93.71092072550346 75.7575672397573 H 0.0 **** 0.06
1133 H 59.12131416644128 93.9318492459042 76.18548560440775 H 0.0 **** 0.06
1134 H 57.85531022668898 94.77336884772677 77.11372472619223 H 0.0 **** 0.06
1135 H 58.2091685391271 95.26768806159535 75.44056611737204 H 0.0 **** 0.06
1136 C 78.73053341445403 93.59961431564713 75.75786633128823 C 0.0 **** -0.24
1137 H 79.29954379694752 94.45529922585175 75.39439525220911 H 0.0 **** 0.06
1138 H 77.68656996630729 93.70644656777327 75.46369141271653 H 0.0 **** 0.06
1139 H 78.7994545871042 93.55291812207079 76.84529223941477 H 0.0 **** 0.06
1140 H 79.13773413309477 92.68408898669296 75.32968223656881 H 0.0 **** 0.06
1141 C 91.54543644065924 25.663198344192608 82.85320064977759 C 0.0 **** -0.24
1142 H 90.72464230168094 26.355427807245007 82.66538142325918 H 0.0 **** 0.06
1143 H 92.2908961363332 26.147329364414077 83.48438740699272 H 0.0 **** 0.06
1144 H 92.00203811757856 25.375513064445727 81.90588031242459 H 0.0 **** 0.06
1145 H 91.16318393514669 24.775433728028872 83.35670606171148 H 0.0 **** 0.06
1146 C 3.6498506117492298 50.24610577994477 82.85171344271865 C 0.0 **** -0.24
1147 H 2.7919278761439728 50.58216031440122 82.26811965991394 H 0.0 **** 0.06
1148 H 3.420689915327614 49.28583273592358 83.31368937443554 H 0.0 **** 0.06
1149 H 3.8717234365126387 50.97961631343213 83.62601919296395 H 0.0 **** 0.06
1150 H 4.513611876950563 50.13804721777379 82.19596309710118 H 0.0 **** 0.06
1151 C 94.54595337247972 107.10157812526626 95.29239085502309 C 0.0 **** -0.24
1152 H 93.88821353542292 106.56881452036191 94.60528025455093 H 0.0 **** 0.06
1153 H 93.94485697016137 107.67604552987581 95.99775463256364 H 0.0 **** 0.06
1154 H 95.19109745284155 107.77564236404737 94.7293729157146 H 0.0 **** 0.06
1155 H 95.15920572516265 106.38367773272086 95.83766538858336 H 0.0 **** 0.06
1156 C 40.58313562943608 76.12038350915518 96.47754267687041 C 0.0 **** -0.24
1157 H 40.3311758652027 76.92034611758069 95.78077166215274 H 0.0 **** 0.06
1158 H 41.6416924879444 75.876355324658 96.38428839363303 H 0.0 **** 0.06
1159 H 39.984723690240855 75.23801501433138 96.24909195449769 H 0.0 **** 0.06
1160 H 40.37434605244511 76.44669391377315 97.49680573395277 H 0.0 **** 0.06
1161 C 30.80946260690007 20.417632288929312 38.25227418008738 C 0.0 **** -0.24
1162 H 30.26840008170646 20.024117511430774 39.11304255220137 H 0.0 **** 0.06
1163 H 31.62455029577584 21.0546984244196 38.595325920589275 H 0.0 **** 0.06
1164 H 30.129886186235012 20.99975502158877 37.63048588536696 H 0.0 **** 0.06
1165 H 31.215259471152216 19.589653754939235 37.66944895545185 H 0.0 **** 0.06
1166 C 47.97513501907759 85.64657723659272 35.99936805586648 C 0.0 **** -0.24
1167 H 48.42610838570895 85.6400009261389 36.99193014706918 H 0.0 **** 0.06
1168 H 48.54748023112744 86.30239479885356 35.34439559512188 H 0.0 **** 0.06
1169 H 46.949452696341226 86.00719676540481 36.0701351978841 H 0.0 **** 0.06
1170 H 47.97751833609261 84.63521890381512 35.594291154280626 H 0.0 **** 0.06
1171 C 29.56177450508249 106.30480665069982 86.27746760254706 C 0.0 **** -0.24
1172 H 29.186917560319174 106.5863774036483 87.26217870313893 H 0.0 **** 0.06
1173 H 30.020735414091718 105.31845962032989 86.33301990495991 H 0.0 **** 0.06
1174 H 30.304122243548328 107.03326125961685 85.95064433938458 H 0.0 **** 0.06
1175 H 28.73572643480238 106.28362494808104 85.566785101148 H 0.0 **** 0.06
1176 C 93.26224313961713 106.72505331373246 4.103849671912798 C 0.0 **** -0.24
1177 H 92.4161746976248 107.3754174412205 4.327408236450225 H 0.0 **** 0.06
1178 H 93.76102668219553 107.07530944256584 3.1998572188929018 H 0.0 **** 0.06
1179 H 92.9065171500425 105.70693936971621 3.9510666622509802 H 0.0 **** 0.06
1180 H 93.9645615429798 106.74326785037401 4.937036795878242 H 0.0 **** 0.06
1181 C 35.42534852127915 46.94439496121714 81.21871707449259 C 0.0 **** -0.24
1182 H 35.37194599138866 47.97278960711782 81.57807817108562 H 0.0 **** 0.06
1183 H 35.79684427694929 46.30074522905869 82.01522104126462 H 0.0 **** 0.06
1184 H 36.10012951172121 46.893310430559154 80.3643420494522 H 0.0 **** 0.06
1185 H 34.43159342617969 46.613584558771095 80.91690754094344 H 0.0 **** 0.06
1186 C 72.555383380819 17.74622589568986 35.56580747950454 C 0.0 **** -0.24
1187 H 73.45633728295076 18.137072200784218 35.09332158367056 H 0.0 **** 0.06
1188 H 71.78798230822642 18.52054549940914 35.578978565285496 H 0.0 **** 0.06
1189 H 72.78448603500593 17.44269060437793 36.58718497860309 H 0.0 **** 0.06
1190 H 72.19488254253875 16.885471695688835 35.00213551616591 H 0.0 **** 0.06
1191 C 32.0837496006874 89.92857395830387 16.264185818589596 C 0.0 **** -0.24
1192 H 31.967262175859275 90.56614114069055 15.387530528683982 H 0.0 **** 0.06
1193 H 31.33731136183235 90.19955548076419 17.010988796051635 H 0.0 **** 0.06
1194 H 33.08139370714312 90.06309225431343 16.680853217632944 H 0.0 **** 0.06
1195 H 31.94786569503279 88.8868917676875 15.975197171488162 H 0.0 **** 0.06
1196 C 22.30839917665969 4.336107301158876 47.07149913430539 C 0.0 **** -0.24
1197 H 23.38257311098164 4.272286755322597 47.24546179654168 H 0.0 **** 0.06
1198 H 22.09521155998192 4.115393156855163 46.02577020388459 H 0.0 **** 0.06
1199 H 21.961715150745192 5.342007697690633 47.309302219844014 H 0.0 **** 0.06
1200 H 21.794740204514312 3.6154597217526714 47.70721463476955 H 0.0 **** 0.06
1201 C 56.90978254157096 86.06617322983757 37.79904899303267 C 0.0 **** -0.24
1202 H 56.65994442321605 86.5457313096851 38.74617978234738 H 0.0 **** 0.06
1203 H 57.03456788461776 84.99499682245259 37.95816354026613 H 0.0 **** 0.06
1204 H 57.83804888797499 86.48652419851001 37.41306152388978 H 0.0 **** 0.06
1205 H 56.10683057201456 86.23646240314652 37.08225166261991 H 0.0 **** 0.06
1206 C 98.48842331377209 34.564843240874055 4.747233142449829 C 0.0 **** -0.24
1207 H 98.68874903542996 33.637559161147884 5.284495250360834 H 0.0 **** 0.06
1208 H 99.165601220488 34.644645104695606 3.8969082355419857 H 0.0 **** 0.06
1209 H 98.6426629558285 35.41167465179506 5.415331460940834 H 0.0 **** 0.06
1210 H 97.4578654581219 34.56406176393367 4.393440036143332 H 0.0 **** 0.06
1211 C 103.04866637061247 16.464891523038567 0.5407230282976627 C 0.0 **** -0.24
1212 H 102.26973272678347 15.803094128815616 0.9188278750967243 H 0.0 **** 0.06
1213 H 102.77081605735451 16.82232341494521 -0.45177857952506884 H 0.0 **** 0.06
1214 H 103.99065535972747 15.919711492291349 0.48002547923448446 H 0.0 **** 0.06
1215 H 103.16312671983195 17.31445994969873 1.2138456156948791 H 0.0 **** 0.06
1216 C 29.05274540312466 67.84830249229839 57.67920898173487 C 0.0 **** -0.24
1217 H 29.385917231729636 66.85682237064745 57.98619988782913 H 0.0 **** 0.06
1218 H 28.11475401355186 67.76163752364798 57.130601605680866 H 0.0 **** 0.06
1219 H 29.80834736470925 68.30387554343523 57.03981900599561 H 0.0 **** 0.06
1220 H 28.901603856775964 68.46956723360324 58.562891693691476 H 0.0 **** 0.06
1221 C 89.77778074516755 78.99130492672724 73.83978975240143 C 0.0 **** -0.24
1222 H 90.45096680569395 78.18531674328763 73.5469291975713 H 0.0 **** 0.06
1223 H 89.75720492496828 79.06951255685028 74.9262058105181 H 0.0 **** 0.06
1224 H 88.7749780243218 78.7781372505902 73.47034432144815 H 0.0 **** 0.06
1225 H 90.13060258564053 79.93131115865661 73.41389093374113 H 0.0 **** 0.06
1226 C 102.43631426940487 85.65387620643126 13.139695150375388 C 0.0 **** -0.24
1227 H 102.6897005589245 85.26734778694728 14.127184849590208 H 0.0 **** 0.06
1228 H 101.82936876932814 86.55303114174409 13.246096622390326 H 0.0 **** 0.06
1229 H 101.87659182767015 84.89880336966864 12.587974665303307 H 0.0 **** 0.06
1230 H 103.35229043559332 85.89492171878184 12.59840638862184 H 0.0 **** 0.06
1231 C 90.39279351835533 61.88317990188932 35.49074228119665 C 0.0 **** -0.24
1232 H 90.85132264008048 61.22636971664372 36.22987970169358 H 0.0 **** 0.06
1233 H 90.1952790669581 62.85543031588281 35.94258506027423 H 0.0 **** 0.06
1234 H 89.45576523975707 61.44447597088845 35.14793100847622 H 0.0 **** 0.06
1235 H 91.06891066986769 62.0050639751758 34.64433009363798 H 0.0 **** 0.06
1236 C 71.63787647690202 88.874017997927 35.28673482536672 C 0.0 **** -0.24
1237 H 72.29927094622285 88.53489140963903 34.488868756722454 H 0.0 **** 0.06
1238 H 72.11528074772389 89.68777579495158 35.83283383490715 H 0.0 **** 0.06
1239 H 71.43657388017806 88.04780487380671 35.96840397716613 H 0.0 **** 0.06
1240 H 70.70068737141237 89.22591605932112 34.85548890548499 H 0.0 **** 0.06
1241 C 83.91852704236877 38.73446857382165 101.40286885923724 C 0.0 **** -0.24
1242 H 83.0654066281694 38.55909215872376 102.05850167877414 H 0.0 **** 0.06
1243 H 84.02687369486682 39.805689809915876 101.22812089433104 H 0.0 **** 0.06
1244 H 83.75732299103339 38.22566369821955 100.45259597749589 H 0.0 **** 0.06
1245 H 84.82317253957629 38.34916181118246 101.8727272503656 H 0.0 **** 0.06
1246 C 86.1439802864201 35.31473728601396 77.8220609006533 C 0.0 **** -0.24
1247 H 85.16395017356754 35.771621486752736 77.96150815731689 H 0.0 **** 0.06
1248 H 86.42465178797713 35.370823840621036 76.77034586777407 H 0.0 **** 0.06
1249 H 86.10581326697357 34.27087923184687 78.13407270257989 H 0.0 **** 0.06
1250 H 86.88053862252042 35.84636081722115 78.42419371622196 H 0.0 **** 0.06
1251 C 21.254367589965597 98.7175269980425 24.40991509786545 C 0.0 **** -0.24
1252 H 20.782460485306956 98.02326054023771 23.71437969660235 H 0.0 **** 0.06
1253 H 21.27626475760053 98.27521092181368 25.406399295498204 H 0.0 **** 0.06
1254 H 20.686262727591867 99.64745783832403 24.436919012616954 H 0.0 **** 0.06
1255 H 22.273298906320747 98.92446267111072 24.080843124530816 H 0.0 **** 0.06
1256 C 104.77196386668392 35.73543660611929 9.866236984494577 C 0.0 **** -0.24
1257 H 105.53402490524117 35.30552822357481 9.216216628982622 H 0.0 **** 0.06
1258 H 105.16474211988627 36.63534696637694 10.340182470632442 H 0.0 **** 0.06
1259 H 104.49709625927042 35.01085853294637 10.631896870863699 H 0.0 **** 0.06
1260 H 103.8919302068941 35.99032537841052 9.274223250032975 H 0.0 **** 0.06
1261 C 68.4723587954359 34.86451928466053 31.016615437494472 C 0.0 **** -0.24
1262 H 68.19744498646364 33.87742216739943 31.389315612073815 H 0.0 **** 0.06
1263 H 68.02136722413272 35.02095656897896 30.035963229844725 H 0.0 **** 0.06
1264 H 69.5575535635833 34.93164476072823 30.93281661688107 H 0.0 **** 0.06
1265 H 68.11357170492053 35.62733956228638 31.707878608658874 H 0.0 **** 0.06
1266 C 1.0299540650632935 6.959953116124339 22.37360835314547 C 0.0 **** -0.24
1267 H 0.3284083444017938 6.157502605176404 22.603972272406423 H 0.0 **** 0.06
1268 H 2.0496745322660104 6.584875449051353 22.45684650107455 H 0.0 **** 0.06
1269 H 0.8850070131937287 7.78154448731901 23.076071691320948 H 0.0 **** 0.06
1270 H 0.8538790783310333 7.315320662020213 21.358297457122717 H 0.0 **** 0.06
1271 C 0.057280611672626325 98.44341779228714 39.74340062687452 C 0.0 **** -0.24
1272 H 0.021947124664297935 98.83692545728971 40.75905310117935 H 0.0 **** 0.06
1273 H 0.008088187406770864 99.26924037946443 39.03354579938119 H 0.0 **** 0.06
1274 H -0.7887357440534166 97.77478557696813 39.582580789334116 H 0.0 **** 0.06
1275 H 0.9874393448857912 97.89400045380373 39.598884126171924 H 0.0 **** 0.06
1276 C 80.83189277401902 59.41543401954425 91.33856505232107 C 0.0 **** -0.24
1277 H 80.74500327046883 58.55004114901922 91.99406639523723 H 0.0 **** 0.06
1278 H 81.83016236965545 59.84371838611108 91.43203724536843 H 0.0 **** 0.06
1279 H 80.0887082235065 60.16204318569464 91.62039520264759 H 0.0 **** 0.06
1280 H 80.6637309872637 59.10781385702083 90.30655189844303 H 0.0 **** 0.06
1281 C 86.16565983232061 23.160690387972124 3.981784213397475 C 0.0 **** -0.24
1282 H 85.32361542171066 23.722076126678417 4.386590300655939 H 0.0 **** 0.06
1283 H 86.4886701224849 22.41611754620982 4.709654642964281 H 0.0 **** 0.06
1284 H 86.9889900379805 23.8435385895732 3.7704043490549566 H 0.0 **** 0.06
1285 H 85.86137260561492 22.662304771598485 3.0623242146652956 H 0.0 **** 0.06
1286 C 98.84238986831973 103.60190125254262 97.67799315390435 C 0.0 **** -0.24
1287 H 99.43937382300851 102.72744127988835 97.4187526684216 H 0.0 **** 0.06
1288 H 99.44176987344079 104.50340988184254 97.54473182007234 H 0.0 **** 0.06
1289 H 98.52164198241053 103.52796263758361 98.71655491394036 H 0.0 **** 0.06
1290 H 97.96694654791537 103.64831110993391 97.02953739690844 H 0.0 **** 0.06
1291 C 34.89724156496055 102.15803033296939 55.85097286531712 C 0.0 **** -0.24
1292 H 34.53782646953712 103.05360491573681 56.35843093532449 H 0.0 **** 0.06
1293 H 34.46636249270776 101.2749944933581 56.32465494830268 H 0.0 **** 0.06
1294 H 35.98421228150093 102.11333692615314 55.91788222479116 H 0.0 **** 0.06
1295 H 34.59817400652449 102.19049779246127 54.80335405957422 H 0.0 **** 0.06
1296 C 38.731397776209455 12.170428027610427 82.0637248305245 C 0.0 **** -0.24
1297 H 38.41988331693941 12.22619605801981 81.02044279861391 H 0.0 **** 0.06
1298 H 37.85179241905219 12.194353900622673 82.70652156838693 H 0.0 **** 0.06
1299 H 39.37609147466304 13.017880171452532 82.29672183885182 H 0.0 **** 0.06
1300 H 39.27843070609827 11.242143653999051 82.22938658328218 H 0.0 **** 0.06
1301 C 3.2896495233502634 50.94365226824811 18.257458367197792 C 0.0 **** -0.24
1302 H 4.262885954266665 50.680340235094036 18.671474456421947 H 0.0 **** 0.06
1303 H 2.5792521404560915 51.09479602452585 19.070541299054792 H 0.0 **** 0.06
1304 H 2.939659568602792 50.13886817223209 17.61207380534397 H 0.0 **** 0.06
1305 H 3.379711760137326 51.86227972884485 17.677054952240542 H 0.0 **** 0.06
1306 C 38.62709345520196 20.124369227452988 9.284459418933817 C 0.0 **** -0.24
1307 H 39.30114101979106 19.513311139198766 9.884202338409853 H 0.0 **** 0.06
1308 H 39.204978867002445 20.854088720054303 8.71738392460907 H 0.0 **** 0.06
1309 H 37.92839106340783 20.644812963539508 9.941123786508962 H 0.0 **** 0.06
1310 H 38.07275973908143 19.4857290702367 8.597264719498257 H 0.0 **** 0.06
1311 C 71.7269196763851 48.84067526688849 3.3572245847952047 C 0.0 **** -0.24
1312 H 72.2454250610088 48.5880557182725 4.2820441511334195 H 0.0 **** 0.06
1313 H 70.77845216029908 48.30494148988416 3.313607881008423 H 0.0 **** 0.06
1314 H 72.34470967399574 48.55479090438119 2.505174459279658 H 0.0 **** 0.06
1315 H 71.53980899459076 49.913484994482566 3.326507620935544 H 0.0 **** 0.06
1316 C 80.27609850853725 103.54738306984416 21.413152343755485 C 0.0 **** -0.24
1317 H 80.17333573152683 104.44104737539857 20.79637061770636 H 0.0 **** 0.06
1318 H 81.20109523137018 103.03208402675205 21.152492197317912 H 0.0 **** 0.06
1319 H 79.42826513255363 102.88513583622841 21.236579704409934 H 0.0 **** 0.06
1320 H 80.302215660647 103.83363535924485 22.464694183355363 H 0.0 **** 0.06
1321 C 62.13696429063657 57.690994536936465 103.7282469379922 C 0.0 **** -0.24
1322 H 61.78606211477165 56.92196268449455 103.0405243539191 H 0.0 **** 0.06
1323 H 63.1156220505992 57.409840986046994 104.11906459869724 H 0.0 **** 0.06
1324 H 61.43067611910794 57.789854509895136 104.55389791370013 H 0.0 **** 0.06
1325 H 62.21445038327971 58.64110998327692 103.20135589605374 H 0.0 **** 0.06
1326 C 101.93196874578908 103.73163568673452 101.83603870420387 C 0.0 **** -0.24
1327 H 101.50496343374317 103.60638011291047 102.8308779850532 H 0.0 **** 0.06
1328 H 101.85477695437456 102.79216716749275 101.28759719109584 H 0.0 **** 0.06
1329 H 102.98061004701509 104.01647864575764 101.92451265955327 H 0.0 **** 0.06
1330 H 101.38685517523373 104.50986694713733 101.30284928112434 H 0.0 **** 0.06
1331 C 23.091839560971664 32.944581931392804 9.07406078289965 C 0.0 **** -0.24
1332 H 22.807633907045528 33.99276620665978 8.987576534495005 H 0.0 **** 0.06
1333 H 24.15174835001295 32.83625625534478 8.843022618731169 H 0.0 **** 0.06
1334 H 22.5048195170846 32.34961486437277 8.375893705179351 H 0.0 **** 0.06
1335 H 22.904566445782365 32.60035386034082 10.09135402414526 H 0.0 **** 0.06
1336 C 50.448327918705104 87.85653879331416 26.1124235513945 C 0.0 **** -0.24
1337 H 49.999431287666425 88.65901621429506 25.52858930299901 H 0.0 **** 0.06
1338 H 51.52774557043847 87.857217277173 25.96037820506794 H 0.0 **** 0.06
1339 H 50.03703448227185 86.8993835559366 25.79183773275807 H 0.0 **** 0.06
1340 H 50.23030755657629 88.00980856628983 27.16899118834627 H 0.0 **** 0.06
1341 C 15.513044616073216 3.0882715009556954 88.22726771695548 C 0.0 **** -0.24
1342 H 16.192764992244463 2.3331996302935334 88.6235875867631 H 0.0 **** 0.06
1343 H 15.59288078292343 3.997196589264802 88.82296650334519 H 0.0 **** 0.06
1344 H 14.489586460706676 2.713008551274429 88.26959880684987 H 0.0 **** 0.06
1345 H 15.777091686599647 3.307521172932378 87.19235831676936 H 0.0 **** 0.06
1346 C 40.73497168226211 97.97528493143993 61.42828098735947 C 0.0 **** -0.24
1347 H 41.75957906007184 98.14256212801794 61.76032731846874 H 0.0 **** 0.06
1348 H 40.11353803158477 98.82022321926975 61.72667713787331 H 0.0 **** 0.06
1349 H 40.350476777705296 97.06295378140938 61.883823773449706 H 0.0 **** 0.06
1350 H 40.71567051264029 97.87517309918225 60.343044702234124 H 0.0 **** 0.06
1351 C 99.25089824136458 26.680684947294978 88.46193184334874 C 0.0 **** -0.24
1352 H 98.23674760535727 26.988790646847747 88.20847168303311 H 0.0 **** 0.06
1353 H 99.96518828840064 27.311382227840028 87.93014382173106 H 0.0 **** 0.06
1354 H 99.39805446608742 25.64067588968561 88.17170454379942 H 0.0 **** 0.06
1355 H 99.40489448848811 26.78375394527133 89.53647950897232 H 0.0 **** 0.06
1356 C 41.6386584278774 29.39556959021428 93.50918653961577 C 0.0 **** -0.24
1357 H 42.54801358669364 28.79482228907932 93.52866953842198 H 0.0 **** 0.06
1358 H 41.06421754752551 29.212943355757318 94.41733082265284 H 0.0 **** 0.06
1359 H 41.040963882470244 29.121243450987095 92.64015772037072 H 0.0 **** 0.06
1360 H 41.902512016375724 30.45130821667817 93.45063808129004 H 0.0 **** 0.06
1361 C 58.742908953481674 89.06386209798532 83.9369111660078 C 0.0 **** -0.24
1362 H 57.95748331969389 88.38602312104743 83.60398991308836 H 0.0 **** 0.06
1363 H 58.42074334965304 90.09428830912688 83.78698167642244 H 0.0 **** 0.06
1364 H 59.65088257396906 88.8784949059233 83.36172885980346 H 0.0 **** 0.06
1365 H 58.94285908659333 88.8957662389808 84.99529410611729 H 0.0 **** 0.06
1366 C 66.7878027812027 79.82236411784616 41.00440458559828 C 0.0 **** -0.24
1367 H 67.54917403067138 80.27311851936625 40.36813893454297 H 0.0 **** 0.06
1368 H 66.23535817729123 79.07476283149651 40.43430807618631 H 0.0 **** 0.06
1369 H 66.10174602986955 80.59358329305209 41.352310824173 H 0.0 **** 0.06
1370 H 67.26513502055181 79.34726188663612 41.86053100009951 H 0.0 **** 0.06
1371 C 64.79675590025997 51.750873545295974 71.06105869121689 C 0.0 **** -0.24
1372 H 64.7415464234077 51.23343198275586 70.10346596185161 H 0.0 **** 0.06
1373 H 63.909670688448614 51.51845589972589 71.65086086535334 H 0.0 **** 0.06
1374 H 64.84949865217888 52.82521506414457 70.8903539182474 H 0.0 **** 0.06
1375 H 65.68710766081281 51.4243618375134 71.59906202373159 H 0.0 **** 0.06
1376 C 28.68600500700454 64.52357990393946 94.9331303993821 C 0.0 **** -0.24
1377 H 29.72822444628084 64.20717820157815 94.89746126093655 H 0.0 **** 0.06
1378 H 28.562710823048654 65.43325581860941 94.34487959267716 H 0.0 **** 0.06
1379 H 28.39973821307782 64.71715483734235 95.96682511633463 H 0.0 **** 0.06
1380 H 28.053841611196184 63.736242515098326 94.52176922698268 H 0.0 **** 0.06
1381 C 10.852424508082521 16.233220636386278 100.1886249759531 C 0.0 **** -0.24
1382 H 9.925382485209752 15.666011442860611 100.11266136181015 H 0.0 **** 0.06
1383 H 11.108865806359177 16.643213595006994 99.21112541090389 H 0.0 **** 0.06
1384 H 11.653097125812494 15.575515974465727 100.52724962675254 H 0.0 **** 0.06
1385 H 10.723938031268546 17.046930325193998 100.90245372195834 H 0.0 **** 0.06
1386 C 32.00904281678885 17.263696519224123 93.4983112879586 C 0.0 **** -0.24
1387 H 32.22679585655294 16.60609270303277 94.33945664330498 H 0.0 **** 0.06
1388 H 31.804120344559635 18.26921585703808 93.86615685524173 H 0.0 **** 0.06
1389 H 31.13801161096177 16.888799138892068 92.96043460991018 H 0.0 **** 0.06
1390 H 32.86667010776091 17.29044171810446 92.82641262574377 H 0.0 **** 0.06
1391 C 88.2164413530117 84.60311117713985 39.606376689485955 C 0.0 **** -0.24
1392 H 87.12998501016284 84.57498245651468 39.69060320113988 H 0.0 **** 0.06
1393 H 88.64785349461948 83.79452698421363 40.19706688598359 H 0.0 **** 0.06
1394 H 88.58493704230796 85.56059563050718 39.974515461284454 H 0.0 **** 0.06
1395 H 88.50215607428532 84.48199990348616 38.561274357251364 H 0.0 **** 0.06
1396 C 99.53194101578723 70.13474465242845 85.47922195002732 C 0.0 **** -0.24
1397 H 99.4183723957673 71.16884558309627 85.15463895811806 H 0.0 **** 0.06
1398 H 99.8305334311319 70.11359730628695 86.5273083328835 H 0.0 **** 0.06
1399 H 100.29505755157237 69.64580157216582 84.87327100586492 H 0.0 **** 0.06
1400 H 98.58356112126287 69.61026254915211 85.36082082792822 H 0.0 **** 0.06
1401 C 92.68970384444476 20.4566717939461 104.23700411850464 C 0.0 **** -0.24
1402 H 91.87687223253468 21.0014974682734 104.71890923259986 H 0.0 **** 0.06
1403 H 92.32151100886209 19.49176536370142 103.88589102232335 H 0.0 **** 0.06
1404 H 93.49643525918869 20.300993475892312 104.95236509920488 H 0.0 **** 0.06
1405 H 93.0611020123993 21.034748813946436 103.39035359732767 H 0.0 **** 0.06
1406 C 17.131529450554083 51.122772621143376 93.24458814386863 C 0.0 **** -0.24
1407 H 16.400003485148957 51.686238284911134 93.82344295837335 H 0.0 **** 0.06
1408 H 17.06415276931378 50.06632469068265 93.50498183666402 H 0.0 **** 0.06
1409 H 18.13346699948957 51.489317635060665 93.46988050719673 H 0.0 **** 0.06
1410 H 16.929383897874885 51.24987455738339 92.18092325569371 H 0.0 **** 0.06
1411 C 81.20634215373656 8.35593436881873 5.467902154885593 C 0.0 **** -0.24
1412 H 81.97143735213537 9.132553792185913 5.485029562815583 H 0.0 **** 0.06
1413 H 81.21362525444147 7.8606627051951605 4.49683333496634 H 0.0 **** 0.06
1414 H 80.22820302569681 8.80629539048685 5.640211636543469 H 0.0 **** 0.06
1415 H 81.4123868023505 7.626014716076519 6.250845075389989 H 0.0 **** 0.06
1416 C 78.43957829358101 25.408654698108876 63.84822878913721 C 0.0 **** -0.24
1417 H 78.24604212519498 25.701932524851458 64.87946034415867 H 0.0 **** 0.06
1418 H 79.50637174926263 25.228907724324273 63.71567145212484 H 0.0 **** 0.06
1419 H 78.1192923391159 26.20669017542437 63.17747619006943 H 0.0 **** 0.06
1420 H 77.88622117578285 24.498199066963224 63.61952128884198 H 0.0 **** 0.06
1421 C 62.68793958961001 39.11860021821826 43.719963898006114 C 0.0 **** -0.24
1422 H 63.599051456105315 39.6594338173544 43.976355988421545 H 0.0 **** 0.06
1423 H 62.13353618173153 39.678266275816895 42.966091554779524 H 0.0 **** 0.06
1424 H 62.07288234474839 39.00265093188344 44.61189103496636 H 0.0 **** 0.06
1425 H 62.94776630903334 38.13580103175383 43.327453371978976 H 0.0 **** 0.06
1426 C 47.60076590380347 97.12641550210205 98.1523979056337 C 0.0 **** -0.24
1427 H 48.34664058799773 96.6230252556393 97.53741911367734 H 0.0 **** 0.06
1428 H 47.66450995042924 96.75722488124569 99.17727926999785 H 0.0 **** 0.06
1429 H 46.606356160450304 96.92575708762158 97.75503897478652 H 0.0 **** 0.06
1430 H 47.78567570416723 98.20112436316808 98.141535470923 H 0.0 **** 0.06
1431 C 43.02874379450228 54.31979459900677 34.838132206430046 C 0.0 **** -0.24
1432 H 42.8637328825315 53.276277906278835 35.107325523695685 H 0.0 **** 0.06
1433 H 42.142370122425774 54.90408364708818 35.090615578580156 H 0.0 **** 0.06
1434 H 43.219450794134346 54.39252004828259 33.76745459282766 H 0.0 **** 0.06
1435 H 43.88712442367685 54.7050383466275 35.38859625067857 H 0.0 **** 0.06
1436 C 3.2689875784626565 18.72021572884603 27.741864856308084 C 0.0 **** -0.24
1437 H 2.462497601775226 19.089951731787664 28.375149086693312 H 0.0 **** 0.06
1438 H 3.0460540951512485 17.699821526325138 27.430012257796534 H 0.0 **** 0.06
1439 H 4.204635207620697 18.734515453631104 28.300333040470818 H 0.0 **** 0.06
1440 H 3.3606430777716696 19.35715601429763 26.862372374033967 H 0.0 **** 0.06
1441 C 9.150045581536332 9.536629447413873 8.393990001849744 C 0.0 **** -0.24
1442 H 9.372770922352942 9.007539458164075 9.321524903728161 H 0.0 **** 0.06
1443 H 9.370743531120311 8.888861972741921 7.5450197637384235 H 0.0 **** 0.06
1444 H 9.7626280565011 10.436166605425342 8.333787696955838 H 0.0 **** 0.06
1445 H 8.095574148713496 9.812223692764704 8.37754257196356 H 0.0 **** 0.06
1446 C 79.69065305442356 103.43773833937016 81.06041422483457 C 0.0 **** -0.24
1447 H 79.68339514870578 102.41306302539127 81.4299496904766 H 0.0 **** 0.06
1448 H 80.10272982614558 103.4562287870572 80.0501629357776 H 0.0 **** 0.06
1449 H 80.30597813636984 104.05585417215428 81.71475404679532 H 0.0 **** 0.06
1450 H 78.67253161175282 103.82637260150875 81.04489540245169 H 0.0 **** 0.06
1451 C 87.34372859630452 39.93414198607485 80.742930991886 C 0.0 **** -0.24
1452 H 86.87997861122213 39.073776888897214 80.26099372108786 H 0.0 **** 0.06
1453 H 87.79743472033641 40.574079410170384 79.9859055168609 H 0.0 **** 0.06
1454 H 88.11202235334164 39.591884492765416 81.43663211127313 H 0.0 **** 0.06
1455 H 86.58646262991559 40.496654527544365 81.28823876191558 H 0.0 **** 0.06
1456 C 68.20280196193816 69.11645764439578 90.73030605609675 C 0.0 **** -0.24
1457 H 68.94249269522754 69.89607179462658 90.91217166339217 H 0.0 **** 0.06
1458 H 68.59738242801608 68.15583463803114 91.06142144967035 H 0.0 **** 0.06
1459 H 67.97980240767669 69.06933677488837 89.66427484542784 H 0.0 **** 0.06
1460 H 67.29091322406656 69.3452556713213 91.28294079512818 H 0.0 **** 0.06
1461 C 53.455163015055966 107.01674697782826 93.88445132041424 C 0.0 **** -0.24
1462 H 54.16422648334193 106.30512343663345 93.46095083565304 H 0.0 **** 0.06
1463 H 53.805351158147374 107.33747226289168 94.86556510699795 H 0.0 **** 0.06
1464 H 52.47893860386975 106.54159883181214 93.98290873610219 H 0.0 **** 0.06
1465 H 53.3729835001241 107.88197351385764 93.22648073988505 H 0.0 **** 0.06
1466 C 37.59217159805482 33.47574081026701 43.492652996034025 C 0.0 **** -0.24
1467 H 38.37334215074499 33.818385184871175 42.81401015078998 H 0.0 **** 0.06
1468 H 37.99825471747464 32.714843254066096 44.15967859381561 H 0.0 **** 0.06
1469 H 36.770005098145 33.05233515630624 42.914551216848906 H 0.0 **** 0.06
1470 H 37.227030041050476 34.31764468735511 44.08038778954688 H 0.0 **** 0.06
1471 C 57.189399067520725 70.11695900308786 47.73499299028464 C 0.0 **** -0.24
1472 H 56.60228548799586 69.3013844073717 47.312567327856755 H 0.0 **** 0.06
1473 H 57.45111990713508 70.82249057729626 46.946991044523145 H 0.0 **** 0.06
1474 H 58.0995426131976 69.71627551471045 48.18189029366164 H 0.0 **** 0.06
1475 H 56.60307550967886 70.62690834954407 48.50023289861912 H 0.0 **** 0.06
1476 C 37.471117509423536 20.027768974661996 55.071599727079615 C 0.0 **** -0.24
1477 H 37.28430960795738 20.359534943061533 56.09269023918347 H 0.0 **** 0.06
1478 H 38.54079163940116 19.87129856515338 54.930143015721 H 0.0 **** 0.06
1479 H 37.11871121327044 20.787185828987873 54.37242548065046 H 0.0 **** 0.06
1480 H 36.93969618064813 19.092901448009457 54.890114624691705 H 0.0 **** 0.06
1481 C 91.44729816107943 47.64889933614412 96.29630577231859 C 0.0 **** -0.24
1482 H 91.355973084018 46.983898021530194 97.15530152591873 H 0.0 **** 0.06
1483 H 91.589671362543 47.0568762720264 95.39287164772963 H 0.0 **** 0.06
1484 H 92.3030619707023 48.309829439309546 96.43716190281526 H 0.0 **** 0.06
1485 H 90.53986824423188 48.24524664755707 96.20113467322466 H 0.0 **** 0.06
1486 C 48.70194675561563 102.09508838755467 100.47812796217985 C 0.0 **** -0.24
1487 H 48.30350508125633 102.04551457175099 99.46369290906028 H 0.0 **** 0.06
1488 H 49.04936806013552 101.10739283373952 100.78006935656728 H 0.0 **** 0.06
1489 H 47.91951359756446 102.42964305537969 101.15907746229792 H 0.0 **** 0.06
1490 H 49.5344522958681 102.79806613546425 100.50635057314943 H 0.0 **** 0.06
1491 C 96.7410403238195 46.32613897104385 92.89593838951804 C 0.0 **** -0.24
1492 H 96.03847968687401 45.76943257380778 92.27661440429024 H 0.0 **** 0.06
1493 H 96.46949264490252 47.38204393726359 92.89229221918903 H 0.0 **** 0.06
1494 H 97.74903671251279 46.20735567636799 92.49863433390598 H 0.0 **** 0.06
1495 H 96.70576858643732 45.945514417826104 93.91641697006608 H 0.0 **** 0.06
1496 C 14.646997542532478 53.65073410300738 96.53729114255468 C 0.0 **** -0.24
1497 H 13.864382835156999 53.3039306623877 97.21256392487237 H 0.0 **** 0.06
1498 H 15.221410132404692 52.795746467429694 96.17808352361845 H 0.0 **** 0.06
1499 H 15.307474543010215 54.33546450945005 97.06821680340384 H 0.0 **** 0.06
1500 H 14.19361998011681 54.16561092994232 95.69017701026533 H 0.0 **** 0.06
1501 C 59.98156992981031 61.08019571396969 33.80759485505132 C 0.0 **** -0.24
1502 H 59.34382002585139 60.5702989144512 34.52977490776212 H 0.0 **** 0.06
1503 H 59.858753389952376 62.15868451519606 33.912255066472255 H 0.0 **** 0.06
1504 H 59.70100919153147 60.77803861069782 32.79840781522725 H 0.0 **** 0.06
1505 H 61.023169862731564 60.813428818288 33.991232512837996 H 0.0 **** 0.06
1506 C 104.78806366159736 75.61128926908029 86.17741799871263 C 0.0 **** -0.24
1507 H 104.68846870091417 75.8325320722793 85.11503240638794 H 0.0 **** 0.06
1508 H 104.32885924288416 76.40983653102165 86.75949810104386 H 0.0 **** 0.06
1509 H 105.84470276925967 75.53492566935901 86.43540664123543 H 0.0 **** 0.06
1510 H 104.2909553188646 74.66657588671667 86.39883536960006 H 0.0 **** 0.06
1511 C 105.0987133091225 70.8969471762162 45.58526367739696 C 0.0 **** -0.24
1512 H 104.17874575669998 71.31624612822532 45.17824059994307 H 0.0 **** 0.06
1513 H 104.95817681875224 69.8331252934797 45.778657677396794 H 0.0 **** 0.06
1514 H 105.34989250364669 71.40671979420824 46.51548279406436 H 0.0 **** 0.06
1515 H 105.90801572371424 71.03188760872155 44.866952159358014 H 0.0 **** 0.06
1516 C 35.53549141429969 51.09611288000767 100.6573306353035 C 0.0 **** -0.24
1517 H 36.545720304351384 51.40458715250497 100.3906531862243 H 0.0 **** 0.06
1518 H 34.86718129591471 51.273605844231895 99.81410611613522 H 0.0 **** 0.06
1519 H 35.19528768323275 51.672108371347264 101.51813220382978 H 0.0 **** 0.06
1520 H 35.53331487734807 50.03503722666744 100.90644390378186 H 0.0 **** 0.06
1521 C 50.913529447172536 88.98917296684928 4.704053288152991 C 0.0 **** -0.24
1522 H 49.88588900776106 88.6523788567024 4.5726131887801955 H 0.0 **** 0.06
1523 H 51.58403791896329 88.12972536590365 4.673427042931195 H 0.0 **** 0.06
1524 H 51.01120686850203 89.49195232083963 5.665851456550399 H 0.0 **** 0.06
1525 H 51.173978594279156 89.68241529094443 3.9033404206254545 H 0.0 **** 0.06
1526 C 14.313286714563887 92.35811051368438 27.937225453581423 C 0.0 **** -0.24
1527 H 13.616916843235188 91.69999275359208 27.41755755624069 H 0.0 **** 0.06
1528 H 14.441432043565896 93.27724637862737 27.363699657637202 H 0.0 **** 0.06
1529 H 15.276537536304318 91.85807708595794 28.042658722751007 H 0.0 **** 0.06
1530 H 13.91782645054839 92.59841910382855 28.92461277015999 H 0.0 **** 0.06
1531 C 83.99375692197253 99.16685819441722 28.682844955682583 C 0.0 **** -0.24
1532 H 84.25596312666113 98.98950981261123 27.64069521544718 H 0.0 **** 0.06
1533 H 83.56043998197623 98.26133540345887 29.107142724042717 H 0.0 **** 0.06
1534 H 83.2697985971468 99.97866752719315 28.743331308077245 H 0.0 **** 0.06
1535 H 84.89019213129461 99.43700279476207 29.24172468812793 H 0.0 **** 0.06
1536 C 37.10272202876135 85.243932326793 31.423062141388442 C 0.0 **** -0.24
1537 H 36.49372090092382 86.1215229489686 31.206045931560794 H 0.0 **** 0.06
1538 H 36.801402032646166 84.82120939674378 32.38124284899081 H 0.0 **** 0.06
1539 H 38.15311896944689 85.53282492888818 31.46658300561498 H 0.0 **** 0.06
1540 H 36.96174126116455 84.50184613173263 30.637202604710097 H 0.0 **** 0.06
1541 C 66.48933893379834 84.55293843390815 100.01567995418316 C 0.0 **** -0.24
1542 H 66.99339646089811 85.50721358523859 99.86185321766015 H 0.0 **** 0.06
1543 H 65.80590673799662 84.63565358755064 100.86169083820931 H 0.0 **** 0.06
1544 H 67.22924755592996 83.7799562645882 100.22188004057932 H 0.0 **** 0.06
1545 H 65.92886286300404 84.28990425720079 99.119041640604 H 0.0 **** 0.06
1546 C 22.19398596635847 4.37902610603706 60.22813978013107 C 0.0 **** -0.24
1547 H 21.7326085763857 3.4060739738325196 60.394030437188974 H 0.0 **** 0.06
1548 H 23.041737871979564 4.269332353192709 59.5516431383067 H 0.0 **** 0.06
1549 H 22.53916672904421 4.784502489480531 61.179407811661235 H 0.0 **** 0.06
1550 H 21.463435165169557 5.058054836417128 59.78820884503358 H 0.0 **** 0.06
1551 C 102.71330890630931 47.07347767877931 67.17406707111611 C 0.0 **** -0.24
1552 H 103.5854419641426 47.369136526162436 67.7571352299855 H 0.0 **** 0.06
1553 H 102.76875616532016 47.524416699810544 66.18318851380798 H 0.0 **** 0.06
1554 H 101.80822683636667 47.413894968325515 67.6785611648069 H 0.0 **** 0.06
1555 H 102.69023587331561 45.987506425061596 67.08047859660093 H 0.0 **** 0.06
1556 C 10.610290229366456 65.09772343118024 68.82859621841462 C 0.0 **** -0.24
1557 H 11.263973660393788 65.96810176737452 68.78182889455091 H 0.0 **** 0.06
1558 H 9.705546816987919 65.29242431584206 68.25135215983526 H 0.0 **** 0.06
1559 H 10.343432236493186 64.900067410286 69.86613732848099 H 0.0 **** 0.06
1560 H 11.126897733550436 64.23205535583423 68.41461656180158 H 0.0 **** 0.06
1561 C 106.9463176792226 21.146786782789206 26.526120790579043 C 0.0 **** -0.24
1562 H 106.42034595799112 21.991699309182252 26.080154044428923 H 0.0 **** 0.06
1563 H 108.0213870694125 21.292385285214948 26.42115134486049 H 0.0 **** 0.06
1564 H 106.65169863605482 20.22795988005663 26.019235750705775 H 0.0 **** 0.06
1565 H 106.69004600042439 21.076661100481942 27.583344954327103 H 0.0 **** 0.06
1566 C 91.93147274709867 28.26007579218185 42.78544674203107 C 0.0 **** -0.24
1567 H 90.87438299951566 28.055111903647656 42.61655100100805 H 0.0 **** 0.06
1568 H 92.26325349515997 27.737745964586054 43.683225016994754 H 0.0 **** 0.06
1569 H 92.07697133483586 29.33253525581435 42.91490935042165 H 0.0 **** 0.06
1570 H 92.5093626490941 27.915640920234495 41.929045264139816 H 0.0 **** 0.06
1571 C 86.56158212550457 72.90459554784132 80.50083056862867 C 0.0 **** -0.24
1572 H 85.68634783727228 72.63069046542256 81.088236358353 H 0.0 **** 0.06
1573 H 87.09918605210692 73.7093466415634 81.00337852943402 H 0.0 **** 0.06
1574 H 86.24682036929426 73.2394660187565 79.51300950122446 H 0.0 **** 0.06
1575 H 87.21691596521549 72.03868643463312 80.3992542847943 H 0.0 **** 0.06
1576 C 26.58148396016901 20.557779351791964 77.42681352729619 C 0.0 **** -0.24
1577 H 27.292661536449117 20.412298169504425 76.61447595626987 H 0.0 **** 0.06
1578 H 27.091304084880733 20.43573502554591 78.38272897982768 H 0.0 **** 0.06
1579 H 25.780561312850637 19.822345677410738 77.34535205741145 H 0.0 **** 0.06
1580 H 26.160175231225196 21.561333726333828 77.36434514358916 H 0.0 **** 0.06
1581 C 55.261199174653235 34.005588166523665 50.272073874726914 C 0.0 **** -0.24
1582 H 54.91170483263785 32.996753237377305 50.489833975709416 H 0.0 **** 0.06
1583 H 55.2640174463184 34.595533427512095 51.18841296920556 H 0.0 **** 0.06
1584 H 54.5968277996343 34.4701946426016 49.542312075295 H 0.0 **** 0.06
1585 H 56.2708139176455 33.95992709692234 49.86575039374736 H 0.0 **** 0.06
1586 C 76.29667449737184 10.323320392714948 75.93856066362892 C 0.0 **** -0.24
1587 H 76.95425478336853 9.809735858249525 75.23605310199525 H 0.0 **** 0.06
1588 H 75.72042891780069 11.08113383764676 75.40761007392433 H 0.0 **** 0.06
1589 H 76.89498605757922 10.797030754800616 76.71607942372609 H 0.0 **** 0.06
1590 H 75.61683191918189 9.601658270374756 76.39183494357084 H 0.0 **** 0.06
1591 C 22.098899111533598 34.226075591243784 39.30906888028156 C 0.0 **** -0.24
1592 H 21.36790961424302 34.09053585533488 40.10601557238442 H 0.0 **** 0.06
1593 H 22.55405008171593 33.26579594466227 39.06691129837388 H 0.0 **** 0.06
1594 H 22.870348001942403 34.92169368979182 39.63834649461221 H 0.0 **** 0.06
1595 H 21.602051535175832 34.6269399233075 38.42482963579852 H 0.0 **** 0.06
1596 C 60.80642411721897 47.60609287164107 1.4939221500408708 C 0.0 **** -0.24
1597 H 61.63067373823833 47.81978507314844 2.1739566232327325 H 0.0 **** 0.06
1598 H 60.11932388509541 48.45263111839472 1.4772483102151721 H 0.0 **** 0.06
1599 H 60.27731887148491 46.715140773623204 1.8345491927791624 H 0.0 **** 0.06
1600 H 61.19765590254838 47.43486312000266 0.49075177638041456 H 0.0 **** 0.06
1601 C 54.730341840202016 38.02715118993654 8.818717090219025 C 0.0 **** -0.24
1602 H 54.99627891301751 37.76940377867959 7.793405690122569 H 0.0 **** 0.06
1603 H 53.646826411254395 37.99639621747506 8.931323184595755 H 0.0 **** 0.06
1604 H 55.092133428418954 39.029408045098265 9.046536566829388 H 0.0 **** 0.06
1605 H 55.18806302721224 37.31200528059689 9.503035293013056 H 0.0 **** 0.06
1606 C 105.58839519535408 63.81427667970996 39.46955586136454 C 0.0 **** -0.24
1607 H 105.19588423277393 62.82888463041522 39.220280272539554 H 0.0 **** 0.06
1608 H 104.78077134883551 64.44024494813469 39.851575815770616 H 0.0 **** 0.06
1609 H 106.01241300232958 64.27298799847657 38.57648446556692 H 0.0 **** 0.06
1610 H 106.36254063729159 63.715175987885175 40.230162575636314 H 0.0 **** 0.06
1611 C 56.76418412294322 95.57743819102328 85.25998519347432 C 0.0 **** -0.24
1612 H 56.59097611374307 95.16415956993706 84.26690744043863 H 0.0 **** 0.06
1613 H 56.800903641280684 94.767310419673 85.98846950317676 H 0.0 **** 0.06
1614 H 55.952963362643544 96.26041000517976 85.51470689794573 H 0.0 **** 0.06
1615 H 57.71069815483409 96.11839261387331 85.26871616476093 H 0.0 **** 0.06
1616 C 61.00947790726133 99.09529193396642 54.67782252749441 C 0.0 **** -0.24
1617 H 61.53540752174587 99.9123145971598 54.18314308637406 H 0.0 **** 0.06
1618 H 60.032081381899616 98.96038476033233 54.21463812439595 H 0.0 **** 0.06
1619 H 60.88183431479382 99.33212395418559 55.734100149557094 H 0.0 **** 0.06
1620 H 61.58970366062698 98.17768342875965 54.57842718541929 H 0.0 **** 0.06
1621 C 89.58283164491458 105.94375165747286 83.26574753810938 C 0.0 **** -0.24
1622 H 90.36223502232332 106.14302983202883 84.00088988438122 H 0.0 **** 0.06
1623 H 88.78208650722836 106.67467557915396 83.3767301343577 H 0.0 **** 0.06
1624 H 89.18419903724909 104.94098053549683 83.4224570475746 H 0.0 **** 0.06
1625 H 90.00393382458918 106.01467589379182 82.26276178293863 H 0.0 **** 0.06
1626 C 29.164369868615474 69.30571701725286 78.68487879185945 C 0.0 **** -0.24
1627 H 29.98920958772777 69.57957729411035 78.02777480484923 H 0.0 **** 0.06
1628 H 28.771406766525196 70.2008992294887 79.16603622644554 H 0.0 **** 0.06
1629 H 29.522185364341844 68.61143313027752 79.4454461340554 H 0.0 **** 0.06
1630 H 28.37640186407683 68.83079233279521 78.1002603856675 H 0.0 **** 0.06
1631 C 101.89207599521067 45.703178876404195 15.814598720237257 C 0.0 **** -0.24
1632 H 101.92842287800939 46.79192557723289 15.866841360564841 H 0.0 **** 0.06
1633 H 101.85805832713855 45.29245873920803 16.82326538246092 H 0.0 **** 0.06
1634 H 102.7789502578469 45.33469342222773 15.299731564578359 H 0.0 **** 0.06
1635 H 101.00031913042223 45.39643776271592 15.266402249490529 H 0.0 **** 0.06
1636 C 98.48309626397185 95.25508415484009 62.57847928098741 C 0.0 **** -0.24
1637 H 97.62231377815522 95.49832909490196 63.199898651814735 H 0.0 **** 0.06
1638 H 99.15053184781237 96.11558464833888 62.5292922826074 H 0.0 **** 0.06
1639 H 98.14539128965157 94.99756783755386 61.57502456547856 H 0.0 **** 0.06
1640 H 99.01507150955138 94.40712747739337 63.011973921563424 H 0.0 **** 0.06
1641 C 74.17131304705697 83.91143268083101 77.31672394979336 C 0.0 **** -0.24
1642 H 74.00864531249363 83.9022320804851 76.23833657640597 H 0.0 **** 0.06
1643 H 73.45488233814785 83.24473362650879 77.7976804577702 H 0.0 **** 0.06
1644 H 74.03689307515239 84.92446880988177 77.69551777964342 H 0.0 **** 0.06
1645 H 75.18491739828926 83.57339089638151 77.53388681885819 H 0.0 **** 0.06
1646 C 61.263997086186734 94.19029040579112 94.25390297803482 C 0.0 **** -0.24
1647 H 61.05308950379171 95.25871344327648 94.24162199630845 H 0.0 **** 0.06
1648 H 61.07020021729754 93.77034428807238 93.2664690422443 H 0.0 **** 0.06
1649 H 60.6240615480868 93.70121503429762 94.98887068589275 H 0.0 **** 0.06
1650 H 62.30974754669312 94.0300187660825 94.51874962047181 H 0.0 **** 0.06
1651 C 77.722384220114 31.071796569039805 17.947615374983712 C 0.0 **** -0.24
1652 H 77.46089288495338 31.67820728659396 18.815514037519677 H 0.0 **** 0.06
1653 H 78.66528106068785 31.4242996101315 17.528976051781513 H 0.0 **** 0.06
1654 H 76.93685596573084 31.15666851771087 17.195597490349797 H 0.0 **** 0.06
1655 H 77.8244801485647 30.03022021721796 18.250268273178648 H 0.0 **** 0.06
1656 C 78.99119627562897 16.377838350413867 11.4450312295196 C 0.0 **** -0.24
1657 H 79.71023656862053 16.83264729827144 12.12763701940986 H 0.0 **** 0.06
1658 H 78.3584748719419 17.154364950152683 11.014637463358042 H 0.0 **** 0.06
1659 H 78.3723994017393 15.66609026501456 11.990770877465138 H 0.0 **** 0.06
1660 H 79.52406989704309 15.860158795403606 10.648176641208238 H 0.0 **** 0.06
1661 C 37.80770628155004 95.19161938144788 22.04489078272522 C 0.0 **** -0.24
1662 H 38.282069583959895 96.0782800987435 21.623932411374454 H 0.0 **** 0.06
1663 H 38.548695426355565 94.60727154081434 22.589571748387684 H 0.0 **** 0.06
1664 H 37.38815185618078 94.5882772139156 21.24003488988184 H 0.0 **** 0.06
1665 H 37.01099273485648 95.49486869138923 22.72422581987199 H 0.0 **** 0.06
1666 C 72.05992275248246 90.51601187662655 52.303979824445626 C 0.0 **** -0.24
1667 H 72.89593879130075 91.19517725183435 52.13330077102615 H 0.0 **** 0.06
1668 H 71.13134644358604 91.00037936117745 52.0012077885354 H 0.0 **** 0.06
1669 H 72.00958039574357 90.26125364103953 53.36306841466693 H 0.0 **** 0.06
1670 H 72.20474392755278 89.60836656822715 51.718552201439984 H 0.0 **** 0.06
1671 C 65.5341953189782 12.518638912572214 77.81141564740753 C 0.0 **** -0.24
1672 H 66.16970074927775 12.486957410010962 76.92577865103084 H 0.0 **** 0.06
1673 H 65.09480600302724 13.511684375555681 77.9081548113607 H 0.0 **** 0.06
1674 H 66.1316918358949 12.297691041202404 78.69545898523074 H 0.0 **** 0.06
1675 H 64.74022615874892 11.777835078930703 77.71462008765252 H 0.0 **** 0.06
1676 C 54.6636782637687 44.297296769598844 78.12069171576618 C 0.0 **** -0.24
1677 H 53.899016028688806 43.810589446879604 78.72711682464447 H 0.0 **** 0.06
1678 H 54.749719589680694 43.782846411061215 77.16311849776491 H 0.0 **** 0.06
1679 H 55.619957604885684 44.25741515696469 78.64185384611724 H 0.0 **** 0.06
1680 H 54.38562025873162 45.33679240161124 77.95135414667703 H 0.0 **** 0.06
1681 C 65.97849352071972 5.912241494693745 67.09193664573334 C 0.0 **** -0.24
1682 H 66.91468369436964 6.147699890405221 66.58516348348778 H 0.0 **** 0.06
1683 H 65.61750134840443 4.940370495493795 66.75361109919822 H 0.0 **** 0.06
1684 H 65.23708397527582 6.676652853983825 66.85998869114448 H 0.0 **** 0.06
1685 H 66.14680282468265 5.882430611872081 68.16842119910987 H 0.0 **** 0.06
1686 C 99.06930674155157 93.33189226983427 73.31625187548988 C 0.0 **** -0.24
1687 H 98.72996123158707 92.31727273987838 73.10572259081565 H 0.0 **** 0.06
1688 H 98.2244753128236 94.01789566586478 73.25196406925417 H 0.0 **** 0.06
1689 H 99.82772701879696 93.61899414986033 72.58721556103339 H 0.0 **** 0.06
1690 H 99.49452873766401 93.37164604534428 74.31848814601139 H 0.0 **** 0.06
1691 C 81.78023076807601 106.17786924119315 23.471040974334528 C 0.0 **** -0.24
1692 H 81.80561446257289 105.24011648103479 24.02562019518801 H 0.0 **** 0.06
1693 H 80.8261872951995 106.67530553758556 23.643783156721412 H 0.0 **** 0.06
1694 H 81.89746706300613 105.97415074372762 22.406432521987057 H 0.0 **** 0.06
1695 H 82.59303535667858 106.82182537925743 23.808622009088637 H 0.0 **** 0.06
1696 C 98.01118505389525 96.66813825118142 66.54657022375608 C 0.0 **** -0.24
1697 H 97.75487162212926 97.69451188231814 66.81121971049049 H 0.0 **** 0.06
1698 H 98.66857517366026 96.25039361375191 67.30869444468158 H 0.0 **** 0.06
1699 H 98.51820764764307 96.65729252492314 65.58168724075301 H 0.0 **** 0.06
1700 H 97.10084002757361 96.07088600662055 66.485501035639 H 0.0 **** 0.06
1701 C 18.182641275140426 65.78479796081061 32.001324043407365 C 0.0 **** -0.24
1702 H 17.86051993504735 65.53221644948053 33.010786801169225 H 0.0 **** 0.06
1703 H 19.16835754322736 66.24942279619974 32.0395856258747 H 0.0 **** 0.06
1704 H 17.46956071411259 66.4787480861461 31.55521969644608 H 0.0 **** 0.06
1705 H 18.23140031325177 64.87782114123917 31.398477191933544 H 0.0 **** 0.06
1706 C 27.443181315409618 27.194662705200813 92.67634330737646 C 0.0 **** -0.24
1707 H 26.476467608549655 27.170902508630093 93.1805097716406 H 0.0 **** 0.06
1708 H 27.667265110977723 28.215809992379718 92.36887404120542 H 0.0 **** 0.06
1709 H 27.41111759654069 26.54956509230658 91.79905108923302 H 0.0 **** 0.06
1710 H 28.216373688093967 26.842191914580894 93.35858562274306 H 0.0 **** 0.06
1711 C 76.925149135588 51.675829031732846 50.484865783364235 C 0.0 **** -0.24
1712 H 77.69667567865098 51.66817751779994 51.255320189682394 H 0.0 **** 0.06
1713 H 77.06910986598801 50.82430078343505 49.81919341913061 H 0.0 **** 0.06
1714 H 76.99334203671273 52.600936601152945 49.91153736952965 H 0.0 **** 0.06
1715 H 75.94353555532884 51.6090695691747 50.95321781657334 H 0.0 **** 0.06
1716 C 68.22185609088083 3.1626490350590046 67.13649777270217 C 0.0 **** -0.24
1717 H 67.14981245747148 3.003510560298963 67.25346832274448 H 0.0 **** 0.06
1718 H 68.44423887421365 4.226232102962612 67.23028863106236 H 0.0 **** 0.06
1719 H 68.53539624130573 2.8109627078570725 66.15370939385122 H 0.0 **** 0.06
1720 H 68.75797679053258 2.609890769117115 67.90852474315051 H 0.0 **** 0.06
1721 C 33.26351678904541 29.189160540031395 11.537046495009633 C 0.0 **** -0.24
1722 H 32.61938716878748 29.102740114379884 10.661089691357972 H 0.0 **** 0.06
1723 H 32.93989368288163 28.476569548231367 12.296837222107314 H 0.0 **** 0.06
1724 H 33.19944797341475 30.201139176309283 11.936567609552071 H 0.0 **** 0.06
1725 H 34.29303524074072 28.974654611477717 11.252538824549902 H 0.0 **** 0.06
1726 C 11.213157821119545 64.14146261111654 83.95913173040891 C 0.0 **** -0.24
1727 H 11.454366210329708 65.18658241174626 84.15530476926273 H 0.0 **** 0.06
1728 H 10.292998958853504 64.0854896331808 83.37637237827228 H 0.0 **** 0.06
1729 H 11.077927092832605 63.6167110678918 84.90456134017094 H 0.0 **** 0.06
1730 H 12.026318929230113 63.6804540578828 83.39958836691014 H 0.0 **** 0.06
1731 C 67.25107979304306 26.787832420910377 93.36998052544467 C 0.0 **** -0.24
1732 H 67.71416932536883 26.192450134297218 92.58337216935612 H 0.0 **** 0.06
1733 H 66.16573273006945 26.7231623419288 93.28193891960731 H 0.0 **** 0.06
1734 H 67.56266219788982 27.827581535301405 93.26877328608899 H 0.0 **** 0.06
1735 H 67.5605059879851 26.407690580138876 94.34263731778057 H 0.0 **** 0.06
1736 C 37.07945988537576 55.77488946968136 102.27913930904589 C 0.0 **** -0.24
1737 H 36.32109259172682 55.12206880014075 101.84786689945156 H 0.0 **** 0.06
1738 H 37.429841246581326 56.47541322929199 101.52063281280886 H 0.0 **** 0.06
1739 H 37.91732172841983 55.17298468850272 102.6318004776549 H 0.0 **** 0.06
1740 H 36.65093363105786 56.32758058307216 103.11531004409466 H 0.0 **** 0.06
1741 C 97.40130173844416 57.90175591904736 69.24738615269095 C 0.0 **** -0.24
1742 H 97.26079531233704 58.32049620675372 70.24324265022892 H 0.0 **** 0.06
1743 H 98.04844529344983 57.026098719087514 69.30917169972946 H 0.0 **** 0.06
1744 H 97.86058283874948 58.64910097816801 68.60087558799884 H 0.0 **** 0.06
1745 H 96.43445103944438 57.61096994091042 68.83630470190025 H 0.0 **** 0.06
1746 C 17.899983792231495 105.24378245804476 81.50589708278177 C 0.0 **** -0.24
1747 H 18.84908597693223 105.59252729941272 81.91093869918592 H 0.0 **** 0.06
1748 H 17.9918290435983 104.19678325689556 81.21525490325679 H 0.0 **** 0.06
1749 H 17.635902921898435 105.84195266182044 80.63352191651903 H 0.0 **** 0.06
1750 H 17.12191989975176 105.34315648228716 82.26362338554269 H 0.0 **** 0.06
1751 C 74.3010796735408 97.00726822222447 77.45879164060486 C 0.0 **** -0.24
1752 H 73.54725377782465 96.25881707494875 77.70211053611037 H 0.0 **** 0.06
1753 H 74.64457308789757 97.48821855099425 78.37505350089829 H 0.0 **** 0.06
1754 H 73.867487962099 97.75694408527039 76.79585868806822 H 0.0 **** 0.06
1755 H 75.1434818139038 96.52611500674325 76.96134420871573 H 0.0 **** 0.06
1756 C 72.34301403804301 80.01948608879741 95.0848917645294 C 0.0 **** -0.24
1757 H 72.06196677884228 80.7754056597984 94.35131234297945 H 0.0 **** 0.06
1758 H 72.31254780147862 80.45426929572744 96.08434567248996 H 0.0 **** 0.06
1759 H 73.35170067669111 79.66463145058046 94.8728984447004 H 0.0 **** 0.06
1760 H 71.64440244482668 79.18468376649272 95.03009555107695 H 0.0 **** 0.06
1761 C 69.0399236462505 89.54162943480026 48.85521297753462 C 0.0 **** -0.24
1762 H 68.036855808535 89.24615131695646 49.16035430745529 H 0.0 **** 0.06
1763 H 69.05248564268808 89.73409981895446 47.782529872797625 H 0.0 **** 0.06
1764 H 69.74120211253225 88.74111173401674 49.089203569392396 H 0.0 **** 0.06
1765 H 69.33033815569506 90.44649519753585 49.39010373587013 H 0.0 **** 0.06
1766 C 105.20633285379807 38.17361408670166 58.490386294987104 C 0.0 **** -0.24
1767 H 104.5931132142784 37.27452863610773 58.551817040239854 H 0.0 **** 0.06
1768 H 106.25254139953445 37.91199262642431 58.65019748877168 H 0.0 **** 0.06
1769 H 104.88745122145373 38.88247249779471 59.254850804594895 H 0.0 **** 0.06
1770 H 105.09092372214045 38.62549392244699 57.505231458941694 H 0.0 **** 0.06
1771 C 102.22031897701939 2.5076643583415716 26.278384136818573 C 0.0 **** -0.24
1772 H 103.06547185555422 2.032560594042309 26.778016804992987 H 0.0 **** 0.06
1773 H 102.07981380358262 2.0562316034407218 25.295903855357466 H 0.0 **** 0.06
1774 H 102.41771026418719 3.573554251670771 26.164669061648 H 0.0 **** 0.06
1775 H 101.31999786933714 2.3667975995246024 26.875817925518533 H 0.0 **** 0.06
1776 C 86.60516536587286 105.85436379391626 105.07287303428822 C 0.0 **** -0.24
1777 H 86.2427366936524 105.52889766760273 106.04776120553399 H 0.0 **** 0.06
1778 H 86.12463231237356 105.26518034296964 104.2911962485646 H 0.0 **** 0.06
1779 H 87.68462133681388 105.71483677307413 105.02157304688731 H 0.0 **** 0.06
1780 H 86.367422982226 106.90895819424719 104.93044425442872 H 0.0 **** 0.06
1781 C 77.37085188956814 81.23132032911596 54.98811312383347 C 0.0 **** -0.24
1782 H 76.91473188412908 80.55781817691079 55.71368744750217 H 0.0 **** 0.06
1783 H 78.37137047764878 81.50632371361198 55.3262144888719 H 0.0 **** 0.06
1784 H 76.76069388055379 82.12919006311714 54.89252636263933 H 0.0 **** 0.06
1785 H 77.43806320952541 80.7322170862623 54.021703648440024 H 0.0 **** 0.06
1786 C 47.673076143144044 98.54562042126896 18.273366902069768 C 0.0 **** -0.24
1787 H 46.978615802285965 97.80132251780273 17.88125816627462 H 0.0 **** 0.06
1788 H 47.35149489661037 98.85347970088081 19.26790641168361 H 0.0 **** 0.06
1789 H 47.68753159807079 99.4114747391494 17.611369130428727 H 0.0 **** 0.06
1790 H 48.67260606060424 98.11457009725095 18.33067546742251 H 0.0 **** 0.06
1791 C 7.507336653165979 95.29141153210531 23.31519786147255 C 0.0 **** -0.24
1792 H 6.512347316628848 95.57050009531149 23.66395216865584 H 0.0 **** 0.06
1793 H 8.155743721934982 95.11418758442453 24.17359327124965 H 0.0 **** 0.06
1794 H 7.917676389726353 96.0983825742111 22.708702425760915 H 0.0 **** 0.06
1795 H 7.440230296891912 94.38357395733955 22.715881275219104 H 0.0 **** 0.06
1796 C 44.07896077384941 38.68225077003686 64.78117671723248 C 0.0 **** -0.24
1797 H 44.721925298577155 38.42687633258467 63.93920213445935 H 0.0 **** 0.06
1798 H 43.85560112183581 37.78206327697998 65.3540132233338 H 0.0 **** 0.06
1799 H 43.15017656128783 39.116746473549625 64.40932439306678 H 0.0 **** 0.06
1800 H 44.5865464300249 39.403132422919185 65.4209728446748 H 0.0 **** 0.06
1801 C 73.06128439504602 70.78723607607031 29.59194572348963 C 0.0 **** -0.24
1802 H 72.49347988642683 70.82167053408602 28.662474912873336 H 0.0 **** 0.06
1803 H 72.81092756051862 69.87573371009881 30.13620363525922 H 0.0 **** 0.06
1804 H 72.8109471411484 71.65445880712707 30.202422316122608 H 0.0 **** 0.06
1805 H 74.12796182625328 70.79610114300345 29.367532305945474 H 0.0 **** 0.06
1806 C 56.81336214764991 72.58087805038424 71.14827254452533 C 0.0 **** -0.24
1807 H 56.05416250585125 71.92898941424608 70.71683681517774 H 0.0 **** 0.06
1808 H 57.73536896683228 72.01637139748588 71.29433233830562 H 0.0 **** 0.06
1809 H 56.464264650435354 72.96071317588107 72.10854017872614 H 0.0 **** 0.06
1810 H 57.000724557852095 73.41523764851361 70.47347255411498 H 0.0 **** 0.06
1811 C 77.42906511599438 20.60553974978995 61.61147857974697 C 0.0 **** -0.24
1812 H 77.03652442874423 20.99150932938469 60.66991388790538 H 0.0 **** 0.06
1813 H 78.50618674195155 20.77173788816079 61.649922612842175 H 0.0 **** 0.06
1814 H 77.22278968162765 19.537268558616795 61.68036132615873 H 0.0 **** 0.06
1815 H 76.95102957170911 21.12285957765205 62.4429873864855 H 0.0 **** 0.06
1816 C 73.12669279797223 18.74653952215664 72.20634179371307 C 0.0 **** -0.24
1817 H 72.96981379144114 17.67316209600802 72.10589515383468 H 0.0 **** 0.06
1818 H 73.24544461889104 19.190007329701356 71.2173609797795 H 0.0 **** 0.06
1819 H 74.02402312465296 18.929449317895024 72.79725971246394 H 0.0 **** 0.06
1820 H 72.26633213494551 19.1940913411256 72.7042550609546 H 0.0 **** 0.06
1821 C 103.33917905460753 7.959660411440694 58.16697470544223 C 0.0 **** -0.24
1822 H 104.24146473863296 8.378744584769834 57.72065335648637 H 0.0 **** 0.06
1823 H 103.21862848684572 6.926484295879817 57.84072419287024 H 0.0 **** 0.06
1824 H 102.4743537942337 8.544305399318404 57.85181877842837 H 0.0 **** 0.06
1825 H 103.42320877254048 7.991214778603279 59.25253997860448 H 0.0 **** 0.06
1826 C 42.50557430753025 72.92230737047308 90.83882117968811 C 0.0 **** -0.24
1827 H 42.799852944888826 72.45906014442821 91.78149603251063 H 0.0 **** 0.06
1828 H 42.39557134298457 73.99690245899978 90.98143397338629 H 0.0 **** 0.06
1829 H 41.55678633613127 72.49946118519577 90.50828040579891 H 0.0 **** 0.06
1830 H 43.27062542553 72.73061187931373 90.08594777195732 H 0.0 **** 0.06
1831 C 8.642290857459173 40.858820816609324 88.96603836936224 C 0.0 **** -0.24
1832 H 8.888928374569389 39.83776569777736 89.253249065712 H 0.0 **** 0.06
1833 H 8.6760394690467 41.50184374896176 89.84680982191375 H 0.0 **** 0.06
1834 H 7.641157837915202 40.88398085023641 88.53674556105923 H 0.0 **** 0.06
1835 H 9.362127709198333 41.21377604730719 88.22930684130478 H 0.0 **** 0.06
1836 C 14.975904709178039 100.19733618153637 93.22030990535475 C 0.0 **** -0.24
1837 H 15.656602335628776 99.3557792088145 93.34511882399394 H 0.0 **** 0.06
1838 H 15.063673931181853 100.86606051326733 94.07709230428341 H 0.0 **** 0.06
1839 H 13.951813561700035 99.8288227923589 93.1496913691497 H 0.0 **** 0.06
1840 H 15.23086165736872 100.73829195188281 92.3087027848201 H 0.0 **** 0.06
1841 C 53.587582720645344 9.948372630616374 20.918613330158138 C 0.0 **** -0.24
1842 H 53.42197240906563 9.737463783382294 19.862011986252767 H 0.0 **** 0.06
1843 H 52.629064338081946 10.10206699742765 21.413589315363083 H 0.0 **** 0.06
1844 H 54.19747190133796 10.846929749204888 21.01898295173919 H 0.0 **** 0.06
1845 H 54.104931712835764 9.10587746073489 21.379811455301848 H 0.0 **** 0.06
1846 C 39.128925660320945 33.67432266632872 98.67423372511143 C 0.0 **** -0.24
1847 H 39.478582871141185 33.9958365969932 97.69270360462941 H 0.0 **** 0.06
1848 H 39.10535022168308 32.58528542720225 98.71071369102407 H 0.0 **** 0.06
1849 H 38.12669143119069 34.06620732470719 98.84867480108745 H 0.0 **** 0.06
1850 H 39.80505763978769 34.05066356654535 99.44145061001929 H 0.0 **** 0.06
1851 C 3.7994880656573287 98.6509802080696 8.56882054318605 C 0.0 **** -0.24
1852 H 3.691286417059672 99.41627752649538 7.7995350468380025 H 0.0 **** 0.06
1853 H 2.898091546113335 98.62135647553907 9.17955974914807 H 0.0 **** 0.06
1854 H 4.658182015819307 98.88694865378687 9.197030922446928 H 0.0 **** 0.06
1855 H 3.951128342392792 97.68015227890658 8.096026604276773 H 0.0 **** 0.06
1856 C 4.207605090388782 42.85548147727806 40.646629963137734 C 0.0 **** -0.24
1857 H 3.834983005564112 42.456183719887576 41.58978412729445 H 0.0 **** 0.06
1858 H 4.607611272999122 42.042588010427096 40.04060110963765 H 0.0 **** 0.06
1859 H 4.995618130056897 43.58266629611518 40.84542998885846 H 0.0 **** 0.06
1860 H 3.392206664957129 43.34187274598452 40.11099140903451 H 0.0 **** 0.06
1861 C 17.65578493039635 9.422663015982067 105.26282242934374 C 0.0 **** -0.24
1862 H 17.608432010974553 9.184704351493096 106.32578108893284 H 0.0 **** 0.06
1863 H 17.075636052301576 8.691074608402417 104.7010962034393 H 0.0 **** 0.06
1864 H 18.693279538235004 9.39682713568024 104.9311522533969 H 0.0 **** 0.06
1865 H 17.244786813154803 10.418830155135879 105.09615410829616 H 0.0 **** 0.06
1866 C 0.24501924986759338 88.07107741893968 57.97898034626913 C 0.0 **** -0.24
1867 H -0.632232121836585 88.36354938020528 58.556620304268954 H 0.0 **** 0.06
1868 H 0.5728582725368119 88.91014937072602 57.36616430994523 H 0.0 **** 0.06
1869 H -0.008480326615621259 87.22779160682869 57.33744651363438 H 0.0 **** 0.06
1870 H 1.0462058355408592 87.78185813680922 58.65930966546103 H 0.0 **** 0.06
1871 C 45.084714024648534 81.80331294740449 103.97457099988964 C 0.0 **** -0.24
1872 H 43.99951105991388 81.786872354183 104.07360595822554 H 0.0 **** 0.06
1873 H 45.447863020707885 82.820074685682 104.12412727367102 H 0.0 **** 0.06
1874 H 45.36347122275433 81.45900082368189 102.97872297578388 H 0.0 **** 0.06
1875 H 45.52729669918405 81.14528589277268 104.72301854153649 H 0.0 **** 0.06
1876 C 63.39291154970067 98.0519583172998 104.58445838801437 C 0.0 **** -0.24
1877 H 63.133582697047984 98.97341822755172 105.1053882000533 H 0.0 **** 0.06
1878 H 62.491625199933026 97.60905426314261 104.15872643397844 H 0.0 **** 0.06
1879 H 63.84506963290687 97.35248067947596 105.28672383180118 H 0.0 **** 0.06
1880 H 64.10110247032628 98.27355272777865 103.78542128604032 H 0.0 **** 0.06
1881 C 59.31080130300355 24.498078084504655 17.310920409440115 C 0.0 **** -0.24
1882 H 60.01015993326716 23.69371853001737 17.08335303353968 H 0.0 **** 0.06
1883 H 58.36340146285677 24.072060964776263 17.640932011526317 H 0.0 **** 0.06
1884 H 59.1478398498987 25.101255107877968 16.418329963473866 H 0.0 **** 0.06
1885 H 59.72393074914411 25.125502391323657 18.10171973974272 H 0.0 **** 0.06
1886 C 12.256363426049605 82.38041667855322 85.1242608506318 C 0.0 **** -0.24
1887 H 12.357073418918345 81.39982297424442 85.5903694552849 H 0.0 **** 0.06
1888 H 11.89666994202484 82.26130511599884 84.10206871791104 H 0.0 **** 0.06
1889 H 13.22599863580847 82.8782450890428 85.11410495676452 H 0.0 **** 0.06
1890 H 11.545705228995072 82.98078295511887 85.69214901054315 H 0.0 **** 0.06
1891 C 47.74434110234789 59.17785148063081 75.02252033756108 C 0.0 **** -0.24
1892 H 48.7920342999163 59.040411061925084 75.28879983838549 H 0.0 **** 0.06
1893 H 47.23579765743951 58.21300633580586 75.0419420289167 H 0.0 **** 0.06
1894 H 47.6764007518183 59.60466710035158 74.0224062476916 H 0.0 **** 0.06
1895 H 47.27327490805852 59.8516155832865 75.73868534077245 H 0.0 **** 0.06
1896 C 35.812802227136274 57.25574336642432 62.85037012589348 C 0.0 **** -0.24
1897 H 35.34663369682929 57.36527318787399 63.828972074983284 H 0.0 **** 0.06
1898 H 36.61516997991251 57.986367105434006 62.74598781462626 H 0.0 **** 0.06
1899 H 35.06738511137715 57.42276981156442 62.0729492685858 H 0.0 **** 0.06
1900 H 36.221555467637245 56.25059527889158 62.75228461190008 H 0.0 **** 0.06
1901 C 51.90841024878605 25.67242326166281 74.10245854697456 C 0.0 **** -0.24
1902 H 52.47643905961009 25.446441131017437 73.20022296913979 H 0.0 **** 0.06
1903 H 50.85931678238998 25.81861782324923 73.84381827305211 H 0.0 **** 0.06
1904 H 52.30024508099102 26.580297448789093 74.56089133810019 H 0.0 **** 0.06
1905 H 51.99752313003069 24.842933897860974 74.80476478275659 H 0.0 **** 0.06
1906 C 53.93137888255853 73.37992748314957 92.3578387036535 C 0.0 **** -0.24
1907 H 53.59014727716436 74.0247443035729 93.16799300298732 H 0.0 **** 0.06
1908 H 53.99050694103181 73.95749169249916 91.43509107608702 H 0.0 **** 0.06
1909 H 53.22671763598461 72.55739286576812 92.22711328674671 H 0.0 **** 0.06
1910 H 54.91595465284212 72.9799313096072 92.60072619571554 H 0.0 **** 0.06
1911 C 61.615951967068185 44.3097192242023 78.85089466113664 C 0.0 **** -0.24
1912 H 61.01491726872122 44.91423845746516 78.17055830194961 H 0.0 **** 0.06
1913 H 62.0612049854837 44.95295262415425 79.60993632794057 H 0.0 **** 0.06
1914 H 62.40463292500779 43.80820007680467 78.29054336738596 H 0.0 **** 0.06
1915 H 60.981700413201565 43.56521594447844 79.33145528412156 H 0.0 **** 0.06
1916 C 10.831960782884039 18.694790103014654 38.70499224622975 C 0.0 **** -0.24
1917 H 11.246085575633288 17.75731325402647 39.0756922679345 H 0.0 **** 0.06
1918 H 11.123094206499871 19.508521103371294 39.37089238814241 H 0.0 **** 0.06
1919 H 9.744199853331935 18.62408578681388 38.6711126730755 H 0.0 **** 0.06
1920 H 11.214155131397916 18.88994316214388 37.702912668155875 H 0.0 **** 0.06
1921 C 76.7556581879744 19.766022445607472 13.323537850267073 C 0.0 **** -0.24
1922 H 75.82144613143298 19.533685598463222 13.834875443809153 H 0.0 **** 0.06
1923 H 76.67005903479048 19.497737665886774 12.270178080489316 H 0.0 **** 0.06
1924 H 77.5693887009873 19.20110950912595 13.778885802659303 H 0.0 **** 0.06
1925 H 76.96080788867381 20.833385028750143 13.411101916956241 H 0.0 **** 0.06
1926 C 28.116903877484397 50.84322936956778 70.70972248562053 C 0.0 **** -0.24
1927 H 27.485768322701787 51.24790127971306 71.50205912250479 H 0.0 **** 0.06
1928 H 28.822148285086634 51.60708535719786 70.38333923034382 H 0.0 **** 0.06
1929 H 27.492676825979487 50.53999294746919 69.86886043185928 H 0.0 **** 0.06
1930 H 28.66405272776383 49.9798004607255 71.08680247019988 H 0.0 **** 0.06
1931 C 37.832397736959564 61.4282163786238 82.1519310337793 C 0.0 **** -0.24
1932 H 37.79050159180446 62.49363116100869 82.37710815780562 H 0.0 **** 0.06
1933 H 37.08056764525651 60.902678827054444 82.74147793086831 H 0.0 **** 0.06
1934 H 38.82178973713525 61.04308956035271 82.39819613524728 H 0.0 **** 0.06
1935 H 37.63673197364179 61.273465966079186 81.0909419111961 H 0.0 **** 0.06
1936 C 55.2251660991293 39.20690649985676 57.416142076416754 C 0.0 **** -0.24
1937 H 56.102143113122054 39.565587227082716 56.87776847345775 H 0.0 **** 0.06
1938 H 55.47906486839429 38.29385777396402 57.95597280225689 H 0.0 **** 0.06
1939 H 54.42330460205602 38.999294975011026 56.70793851805034 H 0.0 **** 0.06
1940 H 54.897538237064055 39.96825769632915 58.124185900619544 H 0.0 **** 0.06
1941 C 97.22445074564655 29.369195369674827 6.4182512416207285 C 0.0 **** -0.24
1942 H 96.9845145380312 28.68121367603615 5.607933103363674 H 0.0 **** 0.06
1943 H 96.30432985057703 29.693562715311145 6.904793215003359 H 0.0 **** 0.06
1944 H 97.7483053614746 30.23628797841684 6.014836444288552 H 0.0 **** 0.06
1945 H 97.86282043317216 28.866241511096035 7.1452734617860365 H 0.0 **** 0.06
1946 C 27.371112159957192 16.07244261730885 76.92563120421083 C 0.0 **** -0.24
1947 H 28.038214789200737 16.842492204716265 76.53712449794956 H 0.0 **** 0.06
1948 H 26.951936038336186 16.40173332495978 77.87706368962851 H 0.0 **** 0.06
1949 H 27.931765967286736 15.14965615406426 77.07530807815334 H 0.0 **** 0.06
1950 H 26.565586980329158 15.897018394329109 76.21365356196002 H 0.0 **** 0.06
1951 C 91.54622269484594 43.85518056274407 20.5752678316328 C 0.0 **** -0.24
1952 H 90.68643109351694 43.782471018850856 21.241270407527225 H 0.0 **** 0.06
1953 H 91.34735965023049 44.601727852958504 19.80574695246395 H 0.0 **** 0.06
1954 H 91.72673314405466 42.888654923642406 20.106711761364977 H 0.0 **** 0.06
1955 H 92.42511451061841 44.1505329416139 21.148500649859443 H 0.0 **** 0.06
1956 C 83.49114134682597 64.69591341273804 100.54068419641762 C 0.0 **** -0.24
1957 H 82.87134164958472 64.97204687398764 99.68730539443852 H 0.0 **** 0.06
1958 H 83.85578064938377 65.59754213298558 101.0319147896591 H 0.0 **** 0.06
1959 H 84.33804640787974 64.10131214617397 100.19603230415855 H 0.0 **** 0.06
1960 H 82.90002183385648 64.1110367085492 101.24532429305336 H 0.0 **** 0.06
1961 C 74.54505964398821 6.773308308981555 74.46178304478359 C 0.0 **** -0.24
1962 H 75.619120769585 6.6667927247065535 74.61544129315787 H 0.0 **** 0.06
1963 H 74.06026978760502 6.980972647518485 75.41663701650131 H 0.0 **** 0.06
1964 H 74.14508108924194 5.849245763231593 74.0444878611549 H 0.0 **** 0.06
1965 H 74.35696609559147 7.59587483569814 73.77123046299124 H 0.0 **** 0.06
1966 C 8.790048411635382 76.74631418158276 47.87229628884087 C 0.0 **** -0.24
1967 H 8.984652751331907 77.30527620781129 48.787861869773316 H 0.0 **** 0.06
1968 H 7.728997725957441 76.50532130488651 47.811686396917835 H 0.0 **** 0.06
1969 H 9.373041919533193 75.8249224846536 47.87867232730575 H 0.0 **** 0.06
1970 H 9.075355675138411 77.35022235470092 47.010394071915165 H 0.0 **** 0.06
1971 C 103.66464980988587 42.79358222226669 39.5348276468869 C 0.0 **** -0.24
1972 H 104.0472513829798 41.77457425367808 39.47756945448072 H 0.0 **** 0.06
1973 H 103.20707930737004 43.063099193819596 38.58333171410089 H 0.0 **** 0.06
1974 H 104.48537001820883 43.47754577356739 39.751735283456476 H 0.0 **** 0.06
1975 H 102.91960136948961 42.85681408170052 40.32847322305614 H 0.0 **** 0.06
1976 C 4.380787855255591 49.73565749111401 77.48941424001733 C 0.0 **** -0.24
1977 H 4.1158011969434085 48.8810653937956 78.11138698286133 H 0.0 **** 0.06
1978 H 4.462375439315991 49.417726115786394 76.44987788835762 H 0.0 **** 0.06
1979 H 5.337181442372668 50.142881893393984 77.82062021426916 H 0.0 **** 0.06
1980 H 3.610236463550251 50.50138117254466 77.57713247475245 H 0.0 **** 0.06
1981 C 7.211642281362998 18.659282321171332 91.18832680350579 C 0.0 **** -0.24
1982 H 8.00914945725549 17.999644570187712 90.8473634380249 H 0.0 **** 0.06
1983 H 6.245700750248744 18.187793614519336 91.00099775417533 H 0.0 **** 0.06
1984 H 7.265688391388068 19.603852241218988 90.6485163562824 H 0.0 **** 0.06
1985 H 7.325156494319259 18.84386014075463 92.256996210279 H 0.0 **** 0.06
1986 C 12.285458293359355 98.9589241393133 95.4790226190543 C 0.0 **** -0.24
1987 H 13.089504399990197 99.13553852161542 96.19308487195586 H 0.0 **** 0.06
1988 H 12.132805327168247 99.85352361962237 94.87500476753421 H 0.0 **** 0.06
1989 H 11.367025341689994 98.72396208357716 96.01836066000591 H 0.0 **** 0.06
1990 H 12.550729331158625 98.12277267575465 94.83184511213007 H 0.0 **** 0.06
1991 C 58.70256677650253 49.64204594533629 103.4053568525347 C 0.0 **** -0.24
1992 H 58.685186034481276 48.554227490655364 103.46499396788761 H 0.0 **** 0.06
1993 H 57.78037120071004 50.043866387410674 103.82749362153245 H 0.0 **** 0.06
1994 H 58.788221299678895 49.9472087700488 102.36245385580827 H 0.0 **** 0.06
1995 H 59.55543293908983 50.02301069790866 103.96741813767619 H 0.0 **** 0.06
1996 C 91.27509645695608 91.52576725883941 46.382174203057566 C 0.0 **** -0.24
1997 H 91.19835460920498 91.89976287590943 47.40291445145348 H 0.0 **** 0.06
1998 H 92.11075239034857 92.01338745770356 45.87954268898808 H 0.0 **** 0.06
1999 H 90.35130737258086 91.74232894738971 45.84524265068601 H 0.0 **** 0.06
2000 H 91.44058953792293 90.44915681125985 46.40140006595648 H 0.0 **** 0.06
2001 C 5.027048064629469 106.74247112053405 94.23132058867623 C 0.0 **** -0.24
2002 H 4.989374580190145 106.15578586097502 93.31392820710107 H 0.0 **** 0.06
2003 H 5.592371739658091 107.65784205994385 94.0542163032437 H 0.0 **** 0.06
2004 H 5.512976010917953 106.16088718787461 95.01533775119748 H 0.0 **** 0.06
2005 H 4.013737820374388 106.99600591617764 94.54252334471654 H 0.0 **** 0.06
2006 C 47.62800592622045 92.53109208491259 16.87649329256115 C 0.0 **** -0.24
2007 H 47.70024411791172 93.55505417795958 17.244921094506083 H 0.0 **** 0.06
2008 H 47.23864634318858 92.53809536212717 15.857795184175416 H 0.0 **** 0.06
2009 H 46.95619596848633 91.96148143696577 17.518135536717693 H 0.0 **** 0.06
2010 H 48.616131543840424 92.07181822702863 16.884976336626522 H 0.0 **** 0.06
2011 C 67.39251254584758 32.026136765990344 86.26436015102149 C 0.0 **** -0.24
2012 H 68.30378161625316 31.92717094136549 85.67522933676679 H 0.0 **** 0.06
2013 H 66.8442960213361 32.91055238800115 85.93904280088174 H 0.0 **** 0.06
2014 H 67.65137062398924 32.124829519133954 87.31890411678933 H 0.0 **** 0.06
2015 H 66.7720111599192 31.14098799160277 86.12422312287708 H 0.0 **** 0.06
2016 C 3.6711078461194546 10.364416070115738 23.95186702085482 C 0.0 **** -0.24
2017 H 3.386348218601867 9.500959790535376 23.351638014064065 H 0.0 **** 0.06
2018 H 4.701767635056669 10.249888281486506 24.28840307655082 H 0.0 **** 0.06
2019 H 3.012466984987583 10.438067135771291 24.816958589087903 H 0.0 **** 0.06
2020 H 3.583399662611356 11.269623331453317 23.350283413227203 H 0.0 **** 0.06
2021 C 10.271729483767269 86.24186522898734 10.106042024074128 C 0.0 **** -0.24
2022 H 10.39937566600315 85.23210889290492 9.714005839727093 H 0.0 **** 0.06
2023 H 9.236093672477535 86.55346590900383 9.97559616137346 H 0.0 **** 0.06
2024 H 10.928304568295689 86.92558227293705 9.567851654085615 H 0.0 **** 0.06
2025 H 10.52526644660292 86.25339502094448 11.166528149880833 H 0.0 **** 0.06
2026 C 70.87504715701681 69.40890941222551 70.14668329526886 C 0.0 **** -0.24
2027 H 71.37241772460564 69.84304432214537 69.27926291655595 H 0.0 **** 0.06
2028 H 70.8403892991528 68.32428021240099 70.04051797403956 H 0.0 **** 0.06
2029 H 69.86005315509988 69.80066690665973 70.21681154935214 H 0.0 **** 0.06
2030 H 71.42809225605347 69.66898925738133 71.04935782683445 H 0.0 **** 0.06
2031 C 89.57957692767648 86.10562608023604 28.010116644998305 C 0.0 **** -0.24
2032 H 90.64458819574118 85.87421354395997 28.038838906579485 H 0.0 **** 0.06
2033 H 89.03384792932926 85.37592096664882 28.610258397737297 H 0.0 **** 0.06
2034 H 89.22685713438715 86.06570990990402 26.97939060585503 H 0.0 **** 0.06
2035 H 89.41369080385373 87.10392349622828 28.413005827853794 H 0.0 **** 0.06
2036 C 46.853662683610594 6.612750597341529 95.4068181548246 C 0.0 **** -0.24
2037 H 46.7062439683275 7.655206971987525 95.12280022726347 H 0.0 **** 0.06
2038 H 46.7607132892756 6.515177824104601 96.4890749325163 H 0.0 **** 0.06
2039 H 47.84766155542053 6.289436831191038 95.096959831379 H 0.0 **** 0.06
2040 H 46.10158500607605 5.9927666576277385 94.9194735526813 H 0.0 **** 0.06
2041 C 54.26197551879168 52.7372125891373 82.08837980683808 C 0.0 **** -0.24
2042 H 53.31241755905874 53.11555442141099 81.71005872842397 H 0.0 **** 0.06
2043 H 55.05448699008934 52.96631832803922 81.37522352380387 H 0.0 **** 0.06
2044 H 54.19523336529581 51.65770727160219 82.22366639521391 H 0.0 **** 0.06
2045 H 54.48566079821783 53.21026003198938 83.04466989301989 H 0.0 **** 0.06
2046 C 41.87981879411731 1.0609710317910697 33.7820977147619 C 0.0 **** -0.24
2047 H 41.45402767445779 0.2857364110701326 34.41880321426697 H 0.0 **** 0.06
2048 H 41.34213168080581 1.088844153086086 32.833231305512584 H 0.0 **** 0.06
2049 H 42.931721795275706 0.8426617529506188 33.59759609777544 H 0.0 **** 0.06
2050 H 41.79108203939734 2.0280205097834028 34.278716155605935 H 0.0 **** 0.06
2051 C 60.493667555144356 88.79820155058204 60.36532665432162 C 0.0 **** -0.24
2052 H 59.825172805875894 89.65690360512258 60.308429985963905 H 0.0 **** 0.06
2053 H 61.51979999136748 89.1430385823257 60.493390542369056 H 0.0 **** 0.06
2054 H 60.41708059826081 88.21684089955772 59.446689662883806 H 0.0 **** 0.06
2055 H 60.21145933579018 88.1740545629808 61.21368259565119 H 0.0 **** 0.06
2056 C 41.02563837243037 13.683856279417142 95.08252894588597 C 0.0 **** -0.24
2057 H 41.50971250629101 14.016590196543532 96.0004418271669 H 0.0 **** 0.06
2058 H 41.08517729038792 12.598209303764406 95.01363472004317 H 0.0 **** 0.06
2059 H 41.527453091273564 14.131694464649968 94.22409158076886 H 0.0 **** 0.06
2060 H 39.979022051934564 13.990825065602294 95.0919217038691 H 0.0 **** 0.06
2061 C 3.869529992473076 19.781306800717118 100.70624281500113 C 0.0 **** -0.24
2062 H 4.058443724682462 18.923186187795636 100.06144338108028 H 0.0 **** 0.06
2063 H 3.0775468526820475 19.53597550311153 101.41476171299162 H 0.0 **** 0.06
2064 H 3.5615621715665498 20.632572051112135 100.09761888702607 H 0.0 **** 0.06
2065 H 4.779115834243328 20.03479143711428 101.25004774971084 H 0.0 **** 0.06
2066 C 71.26848349641614 81.86783410227262 12.375045939038671 C 0.0 **** -0.24
2067 H 70.7500305567749 82.16133807510235 11.462012152123918 H 0.0 **** 0.06
2068 H 70.64526159454326 82.10101775311297 13.237358801756216 H 0.0 **** 0.06
2069 H 72.21028097668719 82.41104514894305 12.448359931530945 H 0.0 **** 0.06
2070 H 71.46801309114085 80.79610927654609 12.349894614416542 H 0.0 **** 0.06
2071 C 10.878527275470395 48.1608277824335 87.1520037209338 C 0.0 **** -0.24
2072 H 9.958185281739613 48.556327428981945 86.72217776092123 H 0.0 **** 0.06
2073 H 10.720022267710037 47.93846481884776 88.20747641349197 H 0.0 **** 0.06
2074 H 11.673644747385955 48.90019248269448 87.05063409401691 H 0.0 **** 0.06
2075 H 11.162771559526622 47.24868595907793 86.62694828981114 H 0.0 **** 0.06
2076 C 7.652019965778447 82.68053214563616 78.63698734184655 C 0.0 **** -0.24
2077 H 7.463636765734366 81.6088648781607 78.70341593077904 H 0.0 **** 0.06
2078 H 8.441204811435139 82.86599166345859 77.90821730704207 H 0.0 **** 0.06
2079 H 7.962160823586288 83.0555859944106 79.61232111410769 H 0.0 **** 0.06
2080 H 6.7409747658476515 83.19027553527602 78.32399690436142 H 0.0 **** 0.06
2081 C 16.844606076886024 42.232517551498816 74.15060349261684 C 0.0 **** -0.24
2082 H 17.249232062558235 41.62813897437835 73.3382371387921 H 0.0 **** 0.06
2083 H 15.89441773363427 41.81199610082649 74.47876274677294 H 0.0 **** 0.06
2084 H 16.689312633941412 43.253127412031155 73.80042613837136 H 0.0 **** 0.06
2085 H 17.548037475432935 42.237281196182465 74.98321521574621 H 0.0 **** 0.06
2086 C 19.241327953722475 63.27872729681326 89.33863894446841 C 0.0 **** -0.24
2087 H 18.895578640936776 64.29987402818274 89.1800531880246 H 0.0 **** 0.06
2088 H 20.1347618935948 63.289368640359086 89.96266398217426 H 0.0 **** 0.06
2089 H 19.47554462747442 62.82090295809016 88.37683220830172 H 0.0 **** 0.06
2090 H 18.458515894010844 62.70319901436632 89.83335625102177 H 0.0 **** 0.06
2091 C 12.8397265862037 14.91188061002839 72.88590032667804 C 0.0 **** -0.24
2092 H 12.280108250086489 14.056511638609066 72.50728977319648 H 0.0 **** 0.06
2093 H 13.336413868511357 14.636820786388952 73.81670512590725 H 0.0 **** 0.06
2094 H 12.15491375960364 15.740380940054678 73.06970008675712 H 0.0 **** 0.06
2095 H 13.585231845844483 15.212863418829556 72.14959876982299 H 0.0 **** 0.06
2096 C 42.676544761503266 106.30503464954447 100.02936297390778 C 0.0 **** -0.24
2097 H 42.64309124570616 106.88350311106761 99.106216830949 H 0.0 **** 0.06
2098 H 42.46137805773611 106.95821565456897 100.87523978971569 H 0.0 **** 0.06
2099 H 43.667798638001976 105.86914227172471 100.14908866093504 H 0.0 **** 0.06
2100 H 41.93214437814285 105.50932296846322 99.98553663369592 H 0.0 **** 0.06
2101 C 92.18624530906513 24.73738013469938 32.954647714671324 C 0.0 **** -0.24
2102 H 92.39282805857292 24.391677387248933 31.942073837268026 H 0.0 **** 0.06
2103 H 91.35172086077964 25.438480024344074 32.935737196845935 H 0.0 **** 0.06
2104 H 93.07026475276734 25.23451379952951 33.35605340220238 H 0.0 **** 0.06
2105 H 91.93147100721805 23.884777178300965 33.584182434585415 H 0.0 **** 0.06
2106 C 40.70130369715787 42.848397364766356 27.04497526443654 C 0.0 **** -0.24
2107 H 39.85279354586402 42.22214391895017 26.772063584863083 H 0.0 **** 0.06
2108 H 40.35961171385952 43.67152019500361 27.67276035170702 H 0.0 **** 0.06
2109 H 41.16263415891751 43.248803714767234 26.141792169214643 H 0.0 **** 0.06
2110 H 41.43205850562725 42.25294046108837 27.591820005092025 H 0.0 **** 0.06
2111 C 45.89495176999719 87.0379964810998 93.17934484501735 C 0.0 **** -0.24
2112 H 46.14835573882414 87.61025209286122 92.28687543110648 H 0.0 **** 0.06
2113 H 46.49364024072679 87.39248809027934 94.01900166060398 H 0.0 **** 0.06
2114 H 46.10156591450544 85.98239677544169 93.00476095580528 H 0.0 **** 0.06
2115 H 44.8373338052898 87.16934361848419 93.40597192736126 H 0.0 **** 0.06
2116 C 96.02896470598377 100.97908895670759 29.371239854092664 C 0.0 **** -0.24
2117 H 96.85193625953868 100.72018000753118 30.037571374486845 H 0.0 **** 0.06
2118 H 95.12206211205671 101.13089881715887 29.957494244089332 H 0.0 **** 0.06
2119 H 95.86991777789723 100.17000035885293 28.659167266147932 H 0.0 **** 0.06
2120 H 96.27124225288992 101.89488611007121 28.833438958943248 H 0.0 **** 0.06
2121 C 29.728088444925902 87.79431984074996 80.41492604633274 C 0.0 **** -0.24
2122 H 30.280896791789274 87.40582790892122 79.55886196221411 H 0.0 **** 0.06
2123 H 30.240719512138952 88.6713810226216 80.81004220817479 H 0.0 **** 0.06
2124 H 29.669771930394177 87.02756495630798 81.18718883853683 H 0.0 **** 0.06
2125 H 28.7221103440601 88.0715686455721 80.10100115710239 H 0.0 **** 0.06
2126 C 28.328019099031906 87.11983797364154 1.4671458973593445 C 0.0 **** -0.24
2127 H 28.97268640413978 87.9888382243972 1.5990221245913574 H 0.0 **** 0.06
2128 H 27.32108727896457 87.4499194066042 1.2100558272723134 H 0.0 **** 0.06
2129 H 28.29662923768197 86.54573441505748 2.3930889198532554 H 0.0 **** 0.06
2130 H 28.72105596126491 86.49432529748192 0.6648892787820273 H 0.0 **** 0.06
2131 C 23.902460316706794 64.62480476999302 98.65878837445695 C 0.0 **** -0.24
2132 H 24.642992438185644 63.946897933010376 99.08366744138736 H 0.0 **** 0.06
2133 H 23.754151938841062 64.38632500664883 97.60558006865668 H 0.0 **** 0.06
2134 H 24.253912046981156 65.65221491091906 98.75351845991815 H 0.0 **** 0.06
2135 H 22.95839858142638 64.51297247622921 99.19348151714878 H 0.0 **** 0.06
2136 C 56.165881265465046 86.73744231116902 23.354585099988775 C 0.0 **** -0.24
2137 H 56.68998176089764 86.11753395538786 24.082659308064173 H 0.0 **** 0.06
2138 H 56.883897157319716 87.36981314856035 22.831543942721524 H 0.0 **** 0.06
2139 H 55.4354269001188 87.36224964852882 23.86829309747229 H 0.0 **** 0.06
2140 H 55.653954733479516 86.09744728502781 22.63513436959042 H 0.0 **** 0.06
2141 C 65.52411893667636 86.99607154136618 93.95690433947439 C 0.0 **** -0.24
2142 H 66.05704211675223 86.81680110347861 94.89129652351448 H 0.0 **** 0.06
2143 H 64.9336627022949 87.90812727339068 94.04594645599147 H 0.0 **** 0.06
2144 H 64.8631337635151 86.15449707809398 93.74860707379042 H 0.0 **** 0.06
2145 H 66.24218175925132 87.10456461865482 93.14454314760584 H 0.0 **** 0.06
2146 C 44.9353369105732 28.196371298032695 51.19272980356712 C 0.0 **** -0.24
2147 H 45.083358695160825 29.24188764113299 50.92161755017605 H 0.0 **** 0.06
2148 H 45.83224528756324 27.817035972341223 51.681800100006654 H 0.0 **** 0.06
2149 H 44.73712390411083 27.6132796672098 50.293735124751606 H 0.0 **** 0.06
2150 H 44.08749597682743 28.11413019193225 51.872757638089155 H 0.0 **** 0.06
2151 C 94.55042852453934 74.84590649640325 31.17258437574037 C 0.0 **** -0.24
2152 H 95.32019663211278 74.32201831307003 31.739491733459573 H 0.0 **** 0.06
2153 H 94.9995292032938 75.31078573296088 30.294511704562154 H 0.0 **** 0.06
2154 H 94.09795281386656 75.61395630805504 31.79979161558461 H 0.0 **** 0.06
2155 H 93.785584872497 74.1356934902366 30.858598109747305 H 0.0 **** 0.06
2156 C 48.18174822837113 44.27660741054108 73.59260038569283 C 0.0 **** -0.24
2157 H 48.31229425726969 43.52958317795465 74.37501792061732 H 0.0 **** 0.06
2158 H 48.98983697132957 45.006198220891356 73.64826504526474 H 0.0 **** 0.06
2159 H 47.22605530315343 44.781312063863055 73.72930404776395 H 0.0 **** 0.06
2160 H 48.19880638173191 43.7893361794552 72.6178145291255 H 0.0 **** 0.06
2161 C 15.60842675451778 62.07655043862178 4.959546416191074 C 0.0 **** -0.24
2162 H 16.047063915466026 62.21581686236971 5.947565649741307 H 0.0 **** 0.06
2163 H 16.403850575606242 61.97141382560835 4.221060132413754 H 0.0 **** 0.06
2164 H 14.9935248453001 62.940637902931826 4.710769134141941 H 0.0 **** 0.06
2165 H 14.991690811898422 61.17807328034195 4.959038088373461 H 0.0 **** 0.06
2166 C 69.48431601652042 94.57695500839283 80.59184886099541 C 0.0 **** -0.24
2167 H 68.63438214151515 93.9473455253341 80.8533005209514 H 0.0 **** 0.06
2168 H 70.21383180169398 94.557936525038 81.40144673598837 H 0.0 **** 0.06
2169 H 69.14325730997565 95.60077087156068 80.43418528560403 H 0.0 **** 0.06
2170 H 69.94595008047096 94.20377777516822 79.67707265852107 H 0.0 **** 0.06
2171 C 51.726393780468584 6.377953116382239 5.563102080395254 C 0.0 **** -0.24
2172 H 51.230259852645474 5.834206328522203 6.366804915581042 H 0.0 **** 0.06
2173 H 51.14482201447521 7.266085326656405 5.312638029893947 H 0.0 **** 0.06
2174 H 51.805178496995154 5.73587393507116 4.685247851834163 H 0.0 **** 0.06
2175 H 52.724060138232176 6.675501631036925 5.887081186272042 H 0.0 **** 0.06
2176 C 68.53518008600264 45.9224494031319 19.101408656059334 C 0.0 **** -0.24
2177 H 68.67067674387295 45.53087006580501 18.09302231861369 H 0.0 **** 0.06
2178 H 69.43852372929513 45.74506389226706 19.684685890096887 H 0.0 **** 0.06
2179 H 67.69172453013474 45.41992681173963 19.57463425536571 H 0.0 **** 0.06
2180 H 68.33857479970285 46.993722989764926 19.05117914741595 H 0.0 **** 0.06
2181 C 41.0698559672698 51.15184248239668 16.568832309479887 C 0.0 **** -0.24
2182 H 41.12272857083207 51.624699030003164 17.54990311051793 H 0.0 **** 0.06
2183 H 40.03848995681378 50.86960552358064 16.35655849085441 H 0.0 **** 0.06
2184 H 41.70031029248716 50.26292343260227 16.559561004003825 H 0.0 **** 0.06
2185 H 41.41787426397505 51.851848198744946 15.809009313137523 H 0.0 **** 0.06
2186 C 78.26002859213872 76.39298923332937 7.381073262644055 C 0.0 **** -0.24
2187 H 78.202421801888 76.56753505354051 8.455931843028816 H 0.0 **** 0.06
2188 H 77.30405793068962 76.01065750572155 7.023079886952255 H 0.0 **** 0.06
2189 H 79.04437423609113 75.66370177799016 7.17363527907823 H 0.0 **** 0.06
2190 H 78.49095794027957 77.32925748626646 6.8728586358696475 H 0.0 **** 0.06
2191 C 97.62929153252108 92.05413249646585 82.97503748805957 C 0.0 **** -0.24
2192 H 98.23145927795602 92.77069795056093 83.53410160573384 H 0.0 **** 0.06
2193 H 96.6463824459889 91.96561266604073 83.43953910099486 H 0.0 **** 0.06
2194 H 98.12254481596335 91.0823587064923 82.98171488743003 H 0.0 **** 0.06
2195 H 97.5163116549762 92.39761131859018 81.94696670574262 H 0.0 **** 0.06
2196 C 84.0424305798414 98.91144967078613 5.860060632908329 C 0.0 **** -0.24
2197 H 84.91185721076069 99.28556870042901 5.319479471505957 H 0.0 **** 0.06
2198 H 84.26096805549261 98.89101966927926 6.928783140038377 H 0.0 **** 0.06
2199 H 83.8083515806517 97.90306941370882 5.5186049377493305 H 0.0 **** 0.06
2200 H 83.190773888429 99.56547571568603 5.675270267778885 H 0.0 **** 0.06
2201 C 90.67262230177076 12.04526995547252 20.699583576635334 C 0.0 **** -0.24
2202 H 90.89701781889391 13.08207150005083 20.94820149867533 H 0.0 **** 0.06
2203 H 89.67476084920233 11.793963190700794 21.06015974798268 H 0.0 **** 0.06
2204 H 91.4048826811709 11.39113360880441 21.172777067519775 H 0.0 **** 0.06
2205 H 90.71232727397023 11.912769521568492 19.618759436849672 H 0.0 **** 0.06
2206 C 2.792076886307896 82.93592478532659 21.469865028411846 C 0.0 **** -0.24
2207 H 3.5571532697219794 82.16627166065891 21.369411613779135 H 0.0 **** 0.06
2208 H 2.8342217251406083 83.36150589140468 22.473160252251148 H 0.0 **** 0.06
2209 H 1.8093027722253368 82.49475084389726 21.30329880451515 H 0.0 **** 0.06
2210 H 2.966623610766405 83.72055237110953 20.734367474341184 H 0.0 **** 0.06
2211 C 44.7039578185758 15.304952612606286 46.31071026103865 C 0.0 **** -0.24
2212 H 43.6723321087637 15.552796932437815 46.55859178551913 H 0.0 **** 0.06
2213 H 45.26533346728756 16.223778000318916 46.134318352365995 H 0.0 **** 0.06
2214 H 44.72363219990768 14.68883687870914 45.410760756366585 H 0.0 **** 0.06
2215 H 45.15492248094387 14.75562661477126 47.13734231014399 H 0.0 **** 0.06
2216 C 105.67859160992901 94.97482902531027 103.31633780906994 C 0.0 **** -0.24
2217 H 106.54155012138227 95.30512338088712 103.89387907911464 H 0.0 **** 0.06
2218 H 105.23385557537142 95.83072203606207 102.80729873035165 H 0.0 **** 0.06
2219 H 104.94430937794698 94.52630337949415 103.98496253488995 H 0.0 **** 0.06
2220 H 105.99593369266586 94.23820277371274 102.57867837143779 H 0.0 **** 0.06
2221 C 3.6172921569628453 4.646753495125225 72.74934773212662 C 0.0 **** -0.24
2222 H 2.7450660198959245 4.351203453475785 72.1670270253052 H 0.0 **** 0.06
2223 H 4.418545355519497 3.923563528462892 72.59552537548761 H 0.0 **** 0.06
2224 H 3.3551547207960777 4.679641569236535 73.80679136702463 H 0.0 **** 0.06
2225 H 3.9515060708043004 5.632931291393083 72.42722490323449 H 0.0 **** 0.06
2226 C 61.58570717117016 27.343096811007626 35.77138834429138 C 0.0 **** -0.24
2227 H 62.29663136051474 28.137189039377404 35.99829142598921 H 0.0 **** 0.06
2228 H 60.82477417123991 27.30328689585872 36.55144917103186 H 0.0 **** 0.06
2229 H 62.10925121300946 26.38851485813666 35.72470203742165 H 0.0 **** 0.06
2230 H 61.11166516868454 27.54471515545282 34.81104522418795 H 0.0 **** 0.06
2231 C 94.04031706023258 77.96578156304119 12.719562306454918 C 0.0 **** -0.24
2232 H 94.54430957102227 77.45282624379908 13.539107380418756 H 0.0 **** 0.06
2233 H 93.27935110107268 77.31079168010987 12.295171244465962 H 0.0 **** 0.06
2234 H 94.76829255908436 78.22375656065694 11.950473705529134 H 0.0 **** 0.06
2235 H 93.57055414747771 78.87420014889423 13.094525120736591 H 0.0 **** 0.06
2236 C 69.99878905273604 35.144662732715034 83.72167860218786 C 0.0 **** -0.24
2237 H 69.03679761939168 35.65707481949491 83.73051270342972 H 0.0 **** 0.06
2238 H 70.18526228756156 34.70486211987233 84.70146881684451 H 0.0 **** 0.06
2239 H 70.78831263153586 35.859218845209796 83.48775807422123 H 0.0 **** 0.06
2240 H 69.98434069335875 34.35862950006816 82.96625571544035 H 0.0 **** 0.06
2241 C 46.566940740441666 36.70263332654257 21.763880221840537 C 0.0 **** -0.24
2242 H 46.56850159279037 37.36695991858087 20.900113228401125 H 0.0 **** 0.06
2243 H 47.17843963407053 37.13477576889855 22.555763233371692 H 0.0 **** 0.06
2244 H 46.975843976432074 35.73301043406936 21.476613134110394 H 0.0 **** 0.06
2245 H 45.545917013172875 36.57363559374637 22.122332196633906 H 0.0 **** 0.06
2246 C 102.05902724339524 8.397474982404248 17.579448424355054 C 0.0 **** -0.24
2247 H 101.80686944459579 7.711329614272358 16.770644550826027 H 0.0 **** 0.06
2248 H 101.53118823391625 9.340428205358052 17.432448541158454 H 0.0 **** 0.06
2249 H 103.13309206946077 8.57820614248294 17.581598006330605 H 0.0 **** 0.06
2250 H 101.76217715462796 7.958825676486072 18.532936017742866 H 0.0 **** 0.06
2251 C 18.091284275362568 17.603865228440554 79.56787805062078 C 0.0 **** -0.24
2252 H 17.175667470488406 17.0449231160527 79.75790497670715 H 0.0 **** 0.06
2253 H 18.61121401536076 17.77960618637013 80.50986154771715 H 0.0 **** 0.06
2254 H 17.8449654057585 18.558616992094358 79.10424915929968 H 0.0 **** 0.06
2255 H 18.734596018677564 17.030379240794787 78.9002377675908 H 0.0 **** 0.06
2256 C 49.57385963746231 44.7269955642964 45.87884373104032 C 0.0 **** -0.24
2257 H 49.03618685255854 45.064398321220295 44.99186676684366 H 0.0 **** 0.06
2258 H 50.645221055242274 44.851426923945596 45.72238849304773 H 0.0 **** 0.06
2259 H 49.3520206116057 43.67551280387395 46.05957317049268 H 0.0 **** 0.06
2260 H 49.26061131068589 45.31783976904229 46.739176972387156 H 0.0 **** 0.06
2261 C 93.09074399880973 37.588627547477344 55.87223687566512 C 0.0 **** -0.24
2262 H 93.81354685081337 38.28252465701548 55.443883616634565 H 0.0 **** 0.06
2263 H 93.08157361334744 37.69696776699553 56.95667082711921 H 0.0 **** 0.06
2264 H 93.36893843713699 36.5675179231318 55.61105742660121 H 0.0 **** 0.06
2265 H 92.09888476590584 37.80704034431266 55.47644801633197 H 0.0 **** 0.06
2266 C 48.55500772014665 81.30890887223744 39.520362848879245 C 0.0 **** -0.24
2267 H 49.41555248001663 81.96986660714015 39.42039153448911 H 0.0 **** 0.06
2268 H 47.70940671419453 81.72932923208265 38.97621456272725 H 0.0 **** 0.06
2269 H 48.29546415663981 81.20852665704396 40.57408446363971 H 0.0 **** 0.06
2270 H 48.79908593571173 80.3282435391875 39.111547425235074 H 0.0 **** 0.06
2271 C 6.588808520525191 50.1945271489667 65.3026543143949 C 0.0 **** -0.24
2272 H 6.026270531569594 50.71484035235369 66.07809090487993 H 0.0 **** 0.06
2273 H 7.485213934453213 49.75281848008905 65.74042548046467 H 0.0 **** 0.06
2274 H 6.874703818404427 50.90198002223664 64.52472437815052 H 0.0 **** 0.06
2275 H 5.969867465616687 49.40866805748388 64.87025502615295 H 0.0 **** 0.06
2276 C 97.84509543922543 92.17489511446507 45.191443089606196 C 0.0 **** -0.24
2277 H 97.59163137997842 91.33568448863068 44.543557905868 H 0.0 **** 0.06
2278 H 97.06604433693849 92.30135862778644 45.943817403050446 H 0.0 **** 0.06
2279 H 97.92508978301892 93.08356479275716 44.5941231892557 H 0.0 **** 0.06
2280 H 98.79758362866666 91.97958129241704 45.68348113551207 H 0.0 **** 0.06
2281 C 96.68258728947416 62.69009678546399 73.20786640341697 C 0.0 **** -0.24
2282 H 96.72972074417788 63.434265851979546 72.41349464156116 H 0.0 **** 0.06
2283 H 97.3710851667049 62.96698682826684 74.00594801756122 H 0.0 **** 0.06
2284 H 96.96261785832526 61.71474827812875 72.8091385453569 H 0.0 **** 0.06
2285 H 95.66792719622713 62.64300338952586 73.60259389124067 H 0.0 **** 0.06
2286 C 56.71181275296849 32.18875879306381 78.67779127907248 C 0.0 **** -0.24
2287 H 56.540429699279834 33.09625199263823 79.25658194957069 H 0.0 **** 0.06
2288 H 56.16548850400692 31.36069652598755 79.1313852462919 H 0.0 **** 0.06
2289 H 57.777061982445176 31.959345708155496 78.6684964503967 H 0.0 **** 0.06
2290 H 56.362580733648436 32.338222010154226 77.65639692565844 H 0.0 **** 0.06
2291 C 29.924850339626687 96.73629742239899 93.36532883410084 C 0.0 **** -0.24
2292 H 29.964800435444317 97.37893147417475 92.48500319028501 H 0.0 **** 0.06
2293 H 29.129843170383538 97.07981225011847 94.02822998399925 H 0.0 **** 0.06
2294 H 30.87935199586593 96.7799873552899 93.88936362482173 H 0.0 **** 0.06
2295 H 29.725183424572606 95.71008156592868 93.05781002010906 H 0.0 **** 0.06
2296 C 49.259991790478416 21.557481833127408 11.623297245298659 C 0.0 **** -0.24
2297 H 50.01996145479553 21.480560219077766 12.401483550282364 H 0.0 **** 0.06
2298 H 48.86206942563517 22.571485899470673 11.602676862331009 H 0.0 **** 0.06
2299 H 48.453394825077595 20.85469701638977 11.833940497365973 H 0.0 **** 0.06
2300 H 49.705304479196535 21.32145709001668 10.656648574981205 H 0.0 **** 0.06
2301 C 92.28606564648301 102.1848662297894 19.204802102158837 C 0.0 **** -0.24
2302 H 93.33847642004523 101.93006133026134 19.078047397175624 H 0.0 **** 0.06
2303 H 91.6681549817138 101.35651533305762 18.8562092541664 H 0.0 **** 0.06
2304 H 92.05606098370686 103.07960798564017 18.62602514287029 H 0.0 **** 0.06
2305 H 92.08181735894497 102.37121373720566 20.259744284476852 H 0.0 **** 0.06
2306 C 93.75655922438804 28.141233777055703 89.04537831848172 C 0.0 **** -0.24
2307 H 93.9821017502718 27.07559829885372 89.01174381521369 H 0.0 **** 0.06
2308 H 94.6826931623493 28.7115158330229 88.98062518353017 H 0.0 **** 0.06
2309 H 93.2495664771013 28.374680180876354 89.98126175482996 H 0.0 **** 0.06
2310 H 93.10925749777797 28.40135139803111 88.20691062184946 H 0.0 **** 0.06
2311 C 37.18982645503898 3.8419897471716524 17.171203226423557 C 0.0 **** -0.24
2312 H 38.14215717093843 3.8678411350412887 16.6410234005657 H 0.0 **** 0.06
2313 H 37.35787384412629 4.043799786065023 18.22951959304214 H 0.0 **** 0.06
2314 H 36.73636746902529 2.858054177769475 17.055231638739514 H 0.0 **** 0.06
2315 H 36.52436460302117 4.600656204429612 16.75796420713897 H 0.0 **** 0.06
2316 C 19.178507462355356 85.78998296938164 85.29495767869179 C 0.0 **** -0.24
2317 H 19.95212517067293 85.1267653393665 85.68036352656554 H 0.0 **** 0.06
2318 H 18.214406324926614 85.28305279449029 85.33177464583056 H 0.0 **** 0.06
2319 H 19.409440431386486 86.05793722086383 84.26381840445788 H 0.0 **** 0.06
2320 H 19.13788334228356 86.69283717676382 85.90511234234438 H 0.0 **** 0.06
2321 C 87.75772100591662 54.92915562094575 37.371380298967594 C 0.0 **** -0.24
2322 H 88.49460522209003 54.12722531388263 37.39190025474292 H 0.0 **** 0.06
2323 H 86.76942468689685 54.50981831659024 37.17890591594002 H 0.0 **** 0.06
2324 H 88.01256310841009 55.636470670520765 36.58185787818667 H 0.0 **** 0.06
2325 H 87.7535801640356 55.44373634848907 38.33254067074556 H 0.0 **** 0.06
2326 C 48.390948099031306 101.34674191333325 48.52583588724329 C 0.0 **** -0.24
2327 H 48.54533283271829 102.38956188302394 48.803152632433665 H 0.0 **** 0.06
2328 H 48.94316164705589 100.70312209161656 49.21013289851453 H 0.0 **** 0.06
2329 H 48.74635796324307 101.18580915725128 47.50786574964903 H 0.0 **** 0.06
2330 H 47.32810245498729 101.10987798845704 48.580666127008556 H 0.0 **** 0.06
2331 C 59.880217294459385 4.805239456237246 8.860750164528937 C 0.0 **** -0.24
2332 H 59.83849361049781 5.742713473542807 8.306137405442186 H 0.0 **** 0.06
2333 H 60.690145564296785 4.188592776944176 8.470115025904803 H 0.0 **** 0.06
2334 H 58.9344833329655 4.275143882405047 8.752068870949415 H 0.0 **** 0.06
2335 H 60.059464174153504 5.015873807323516 9.91510847010315 H 0.0 **** 0.06
2336 C 11.26407384826041 20.778782055271673 102.35030126762601 C 0.0 **** -0.24
2337 H 12.286931843924208 20.572203694504637 102.66496235618106 H 0.0 **** 0.06
2338 H 10.66256058393816 19.87632360768228 102.45556386735419 H 0.0 **** 0.06
2339 H 11.26223470590844 21.09759926917675 101.3070985104305 H 0.0 **** 0.06
2340 H 10.845283036776863 21.569905919579266 102.97194584171206 H 0.0 **** 0.06
2341 C 21.61821604161321 15.322611296310697 83.7385916879085 C 0.0 **** -0.24
2342 H 20.75012858860117 14.89399107335542 84.2404528581171 H 0.0 **** 0.06
2343 H 21.932460780016072 14.661652478432455 82.92985287647409 H 0.0 **** 0.06
2344 H 22.43270876890827 15.43482801585272 84.45431560058532 H 0.0 **** 0.06
2345 H 21.35595996476772 16.298418915773215 83.32968466795907 H 0.0 **** 0.06
2346 C 7.504221365249336 81.54901044196797 102.9914586293111 C 0.0 **** -0.24
2347 H 8.369405551550287 81.2384210813651 102.4053662312558 H 0.0 **** 0.06
2348 H 7.273997897997646 80.7831791484692 103.73263966434911 H 0.0 **** 0.06
2349 H 6.648792622382558 81.68636771681037 102.330735306167 H 0.0 **** 0.06
2350 H 7.727769246294784 82.48878354875907 103.49719927191106 H 0.0 **** 0.06
2351 C 99.0667920681392 10.134752601149557 19.25431932256737 C 0.0 **** -0.24
2352 H 98.05875701907365 10.03634803564995 18.850782937254223 H 0.0 **** 0.06
2353 H 99.0202350175307 10.620771995018174 20.22931385499689 H 0.0 **** 0.06
2354 H 99.6721854310077 10.735432754816657 18.576647672523293 H 0.0 **** 0.06
2355 H 99.51244674379564 9.145644946488972 19.361415910116975 H 0.0 **** 0.06
2356 C 57.61982928392886 82.7094301215683 100.00063703062858 C 0.0 **** -0.24
2357 H 56.78519502280969 82.05170883950778 100.244981275508 H 0.0 **** 0.06
2358 H 57.36222931723401 83.73496521213418 100.26680385858816 H 0.0 **** 0.06
2359 H 57.82681928734601 82.65222535020858 98.93224644866433 H 0.0 **** 0.06
2360 H 58.50242868537558 82.39864554875702 100.55950369079409 H 0.0 **** 0.06
2361 C 57.006960445743154 56.514753141830624 41.8118524052648 C 0.0 **** -0.24
2362 H 57.95279827001688 56.94949846032918 41.4880128723411 H 0.0 **** 0.06
2363 H 57.20313070164727 55.65246746036533 42.449466993485544 H 0.0 **** 0.06
2364 H 56.43448209047001 56.19950526446047 40.939457414646114 H 0.0 **** 0.06
2365 H 56.43767783843004 57.25849597965478 42.36945855134297 H 0.0 **** 0.06
2366 C 82.9009140171818 27.937165300366985 18.83549539968955 C 0.0 **** -0.24
2367 H 83.51017773757061 28.837200117458103 18.756326415402768 H 0.0 **** 0.06
2368 H 83.50392341426414 27.06656111257237 18.573257291172297 H 0.0 **** 0.06
2369 H 82.05394489608636 28.009967812872247 18.15433848559003 H 0.0 **** 0.06
2370 H 82.53799296727604 27.833136580208837 19.85837226265879 H 0.0 **** 0.06
2371 C 90.41306001923306 93.29734549379225 57.78452653460644 C 0.0 **** -0.24
2372 H 91.10579528316507 94.00756720924988 57.33146611544083 H 0.0 **** 0.06
2373 H 90.34251689528261 92.40830815837208 57.156927901949956 H 0.0 **** 0.06
2374 H 89.42958553995155 93.75749035034491 57.87528624464002 H 0.0 **** 0.06
2375 H 90.77624940114069 93.01692124258416 58.77368802804287 H 0.0 **** 0.06
2376 C 105.72086969801819 102.35073048229367 106.07680340178455 C 0.0 **** -0.24
2377 H 105.72832911383472 101.35338094431233 105.6365841560721 H 0.0 **** 0.06
2378 H 105.1084866735066 103.01291371212983 105.46397703765271 H 0.0 **** 0.06
2379 H 106.73995598241652 102.73456894751325 106.12100602561246 H 0.0 **** 0.06
2380 H 105.3070675330045 102.30000526899812 107.08348874866773 H 0.0 **** 0.06
2381 C 61.27854648667211 68.4470587987715 85.96763559471597 C 0.0 **** -0.24
2382 H 61.136485917479376 67.65856395009672 86.70581600376818 H 0.0 **** 0.06
2383 H 60.309760910929015 68.76178101572364 85.58054373100285 H 0.0 **** 0.06
2384 H 61.89223956465803 68.07132997075888 85.14779143542924 H 0.0 **** 0.06
2385 H 61.777132774289754 69.2961353942527 86.4344506816291 H 0.0 **** 0.06
2386 C 84.49537985908879 5.128828369359724 81.32624441024333 C 0.0 **** -0.24
2387 H 84.10725058921878 4.676063286791845 80.41378719891972 H 0.0 **** 0.06
2388 H 84.03824189943796 4.650435607102935 82.19266577274098 H 0.0 **** 0.06
2389 H 84.26055738560524 6.193189256887109 81.33144163094136 H 0.0 **** 0.06
2390 H 85.5761140976256 4.99547578428394 81.36583311712499 H 0.0 **** 0.06
2391 C 81.15787436704241 23.798641271536667 21.04460354843235 C 0.0 **** -0.24
2392 H 81.58143803358351 23.2246120097997 20.21956475934536 H 0.0 **** 0.06
2393 H 80.5585574367104 24.617311033476 20.646980966521966 H 0.0 **** 0.06
2394 H 81.96458741964236 24.202446476938434 21.65743237774916 H 0.0 **** 0.06
2395 H 80.52944720969762 23.148531543235777 21.65308801264493 H 0.0 **** 0.06
2396 C 42.316711420708174 77.56724178679085 84.26750217520319 C 0.0 **** -0.24
2397 H 41.26940358573381 77.26247950935155 84.27307324881221 H 0.0 **** 0.06
2398 H 42.482922896740234 78.30599663644372 85.0517334794038 H 0.0 **** 0.06
2399 H 42.563048833493866 78.00299252073799 83.29933076701165 H 0.0 **** 0.06
2400 H 42.94854535476213 76.69799311426274 84.4463184820116 H 0.0 **** 0.06
2401 C 96.96057004906463 34.59138780324025 68.50263771841269 C 0.0 **** -0.24
2402 H 96.83867520629356 34.178440729371914 67.50081881700264 H 0.0 **** 0.06
2403 H 95.9963147104191 34.94347860405986 68.86960833294445 H 0.0 **** 0.06
2404 H 97.6634192967084 35.423902552932134 68.4689949058665 H 0.0 **** 0.06
2405 H 97.3436445673766 33.81910269323009 69.16953000427483 H 0.0 **** 0.06
2406 C 28.1593777615667 80.65297726355823 49.59445107030222 C 0.0 **** -0.24
2407 H 28.214793663969292 81.3566224314219 50.42441083616928 H 0.0 **** 0.06
2408 H 27.732645247885717 81.15056181608446 48.72339384067632 H 0.0 **** 0.06
2409 H 27.528645565518445 79.80915985585666 49.87622551792285 H 0.0 **** 0.06
2410 H 29.16013327750369 80.29418614865992 49.355331834216976 H 0.0 **** 0.06
2411 C 31.60481346743083 27.361821779938765 15.400129766346964 C 0.0 **** -0.24
2412 H 31.35033800828822 26.304225420747713 15.469157918394515 H 0.0 **** 0.06
2413 H 31.712339613744348 27.77555816617081 16.403208065794132 H 0.0 **** 0.06
2414 H 30.81288752245149 27.891386747514787 14.870260007495432 H 0.0 **** 0.06
2415 H 32.544080562334415 27.474771994551702 14.857697897959568 H 0.0 **** 0.06
2416 C 76.04475157985371 65.02862096255686 6.491178255830661 C 0.0 **** -0.24
2417 H 76.37446852556167 64.00531322207274 6.310477589841483 H 0.0 **** 0.06
2418 H 76.6612772313486 65.47646320038507 7.27110209650661 H 0.0 **** 0.06
2419 H 75.00217442444165 65.02355844447337 6.80976257901176 H 0.0 **** 0.06
2420 H 76.1413619068266 65.60818777081883 5.573379016889575 H 0.0 **** 0.06
2421 C 88.26800865357777 100.79885428000772 87.56195100898871 C 0.0 **** -0.24
2422 H 89.27800691265801 100.68099362396994 87.95577855379612 H 0.0 **** 0.06
2423 H 88.12236681365016 100.11591634935529 86.7248542667581 H 0.0 **** 0.06
2424 H 88.12907788312283 101.8252273496064 87.22146856229962 H 0.0 **** 0.06
2425 H 87.54415915775854 100.57483407209398 88.34538610676266 H 0.0 **** 0.06
2426 C 76.38198212504717 89.57617093226051 78.67457461164238 C 0.0 **** -0.24
2427 H 76.87985673637057 90.09747106434781 77.85757111956494 H 0.0 **** 0.06
2428 H 76.9862296921359 88.7213618064276 78.98087514027006 H 0.0 **** 0.06
2429 H 75.40415826538768 89.2282340229965 78.34195305238651 H 0.0 **** 0.06
2430 H 76.25903408505076 90.25494815376638 79.5181342954481 H 0.0 **** 0.06
2431 C 106.64464056878188 46.56789583309183 103.96106204643463 C 0.0 **** -0.24
2432 H 106.90444592289808 46.481023396331985 102.90673951622576 H 0.0 **** 0.06
2433 H 107.51991703191644 46.88610062046069 104.52690081109603 H 0.0 **** 0.06
2434 H 106.30408283603109 45.599895203689464 104.33191920443149 H 0.0 **** 0.06
2435 H 105.84753768381424 47.301863223074065 104.078924519305 H 0.0 **** 0.06
2436 C 48.874660099067825 104.21224900357562 46.262862196455885 C 0.0 **** -0.24
2437 H 48.47931689074926 103.38637938667266 45.672751392429525 H 0.0 **** 0.06
2438 H 49.62933381309986 103.83645942739568 46.95401594401464 H 0.0 **** 0.06
2439 H 48.065006165777646 104.67710385515839 46.82674095201729 H 0.0 **** 0.06
2440 H 49.325080656541104 104.95035765078359 45.59847849782657 H 0.0 **** 0.06
2441 C 12.718567004691721 38.47241062357904 77.43773960676336 C 0.0 **** -0.24
2442 H 13.102487864577085 38.74909322183285 76.45586119409239 H 0.0 **** 0.06
2443 H 13.110367311960061 37.49360366938835 77.717520330339 H 0.0 **** 0.06
2444 H 11.63033485230875 38.431676956533124 77.40379538509063 H 0.0 **** 0.06
2445 H 13.032331425404408 39.2128443576168 78.17303848927847 H 0.0 **** 0.06
2446 C 87.51270594745593 102.1005480953113 31.994578100893037 C 0.0 **** -0.24
2447 H 88.11439486440901 102.53459795770817 31.19587171971891 H 0.0 **** 0.06
2448 H 86.75066917651058 101.45135060265079 31.56281624024487 H 0.0 **** 0.06
2449 H 87.03224389719973 102.89812894749161 32.562075019436406 H 0.0 **** 0.06
2450 H 88.15386669177872 101.51911019006758 32.65660796357304 H 0.0 **** 0.06
2451 C 76.11551809214444 95.42383745551925 65.08395039278736 C 0.0 **** -0.24
2452 H 76.16258435949004 94.43287830125846 64.63224646851512 H 0.0 **** 0.06
2453 H 75.31911282830515 96.00070561616758 64.61261872783956 H 0.0 **** 0.06
2454 H 77.06840851252895 95.93435652379114 64.94026709899293 H 0.0 **** 0.06
2455 H 75.91285138100056 95.32760577470077 66.15024647695634 H 0.0 **** 0.06
2456 C 12.61544342888385 55.959542464151546 73.92849965143702 C 0.0 **** -0.24
2457 H 13.158486845237235 55.022593477204936 74.04822895084376 H 0.0 **** 0.06
2458 H 12.86641281306943 56.63190243371628 74.7485454552639 H 0.0 **** 0.06
2459 H 11.5436929006039 55.76119462550273 73.93547420598301 H 0.0 **** 0.06
2460 H 12.893604620143364 56.42090377491874 72.98022075658875 H 0.0 **** 0.06
2461 C 65.61460351100004 28.153555746382693 90.04473546820107 C 0.0 **** -0.24
2462 H 66.03453194157586 28.890737409134687 90.72970193150641 H 0.0 **** 0.06
2463 H 64.61801093731647 28.471260321833626 89.73588142900387 H 0.0 **** 0.06
2464 H 65.54894207739137 27.18781919874084 90.5476333555493 H 0.0 **** 0.06
2465 H 66.25651504491591 28.064173933271917 89.16868743662884 H 0.0 **** 0.06
2466 C 62.046158419346966 101.84235664841633 71.38220511131456 C 0.0 **** -0.24
2467 H 63.062552849179895 102.11201721880472 71.67015176262132 H 0.0 **** 0.06
2468 H 61.90787856306798 100.76773240034045 71.50113834131437 H 0.0 **** 0.06
2469 H 61.87804014741528 102.11803381683531 70.3416442033049 H 0.0 **** 0.06
2470 H 61.337241239237414 102.37269781531867 72.01827853481214 H 0.0 **** 0.06
2471 C 89.52778868440276 64.78217261557579 62.93181599815925 C 0.0 **** -0.24
2472 H 90.35865182358464 65.11697749653743 62.3101924166951 H 0.0 **** 0.06
2473 H 89.50357795825249 63.692398332678735 62.948476650751886 H 0.0 **** 0.06
2474 H 88.59223666669385 65.161855491515 62.52198309335046 H 0.0 **** 0.06
2475 H 89.65940614820698 65.15824028022385 63.94655324381249 H 0.0 **** 0.06
2476 C 99.72433920871131 22.111377146505586 25.516507673840827 C 0.0 **** -0.24
2477 H 99.57285947981475 21.125895858093553 25.076457433990658 H 0.0 **** 0.06
2478 H 98.82077994891408 22.41613519156982 26.044276461316706 H 0.0 **** 0.06
2479 H 99.94596534982337 22.830363849539445 24.72811902644911 H 0.0 **** 0.06
2480 H 100.55913289989586 22.071509412271386 26.216456799017053 H 0.0 **** 0.06
2481 C 15.198521536286009 73.90779820753085 62.641462970824534 C 0.0 **** -0.24
2482 H 15.483460031401236 73.85849457060189 63.6922569079058 H 0.0 **** 0.06
2483 H 14.635947777384974 73.01197592260615 62.375203719754495 H 0.0 **** 0.06
2484 H 16.094451471696527 73.97116362948877 62.02381089571975 H 0.0 **** 0.06
2485 H 14.579360356465283 74.78920629370226 62.474933933334114 H 0.0 **** 0.06
2486 C 1.652508561446794 22.753847456717963 93.77093292228665 C 0.0 **** -0.24
2487 H 1.489110232382373 23.82287406831429 93.63072291392274 H 0.0 **** 0.06
2488 H 2.6689682230774423 22.499861249595607 93.46836801564001 H 0.0 **** 0.06
2489 H 0.9405023534612837 22.194853472307464 93.16341863374038 H 0.0 **** 0.06
2490 H 1.5114111105408767 22.500215863776507 94.8216308980811 H 0.0 **** 0.06
2491 C 98.89874210581672 11.361075890369774 105.6395396988681 C 0.0 **** -0.24
2492 H 98.5306393538001 11.57161077041035 104.63504770340286 H 0.0 **** 0.06
2493 H 98.95122343064531 10.28226065562154 105.78740491987392 H 0.0 **** 0.06
2494 H 98.21991952246879 11.796123624664729 106.37353500493809 H 0.0 **** 0.06
2495 H 99.89162092030676 11.79391221344971 105.76032905269744 H 0.0 **** 0.06
2496 C 76.59329237287511 42.47613668423958 49.00143748282182 C 0.0 **** -0.24
2497 H 76.98811110853751 41.53156924591153 48.62848415413253 H 0.0 **** 0.06
2498 H 75.69508783549232 42.740614196006476 48.44239543181172 H 0.0 **** 0.06
2499 H 77.34316286393916 43.257326907366604 48.87758361717113 H 0.0 **** 0.06
2500 H 76.34584283633649 42.37379240223308 50.05852032223271 H 0.0 **** 0.06
2501 C 82.1244795922514 62.36623709723881 63.971766878180986 C 0.0 **** -0.24
2502 H 81.05941920868689 62.569625828311416 63.85773556972357 H 0.0 **** 0.06
2503 H 82.69021274270138 63.00563854541559 63.29356961206511 H 0.0 **** 0.06
2504 H 82.32203879026221 61.32079718170496 63.73508682313401 H 0.0 **** 0.06
2505 H 82.42555285965732 62.56923593229084 64.99857892531126 H 0.0 **** 0.06
2506 C 36.077107922208654 24.17881641419939 10.678032724785687 C 0.0 **** -0.24
2507 H 35.402605928674404 24.849412996279455 11.210944553511592 H 0.0 **** 0.06
2508 H 36.99594720404794 24.71035808702834 10.429906660611158 H 0.0 **** 0.06
2509 H 35.59694210571493 23.83413207543947 9.76188141083477 H 0.0 **** 0.06
2510 H 36.31069895656886 23.322983773900205 11.310566820469424 H 0.0 **** 0.06
2511 C 2.4744395082993265 20.916556053934073 48.93482117315648 C 0.0 **** -0.24
2512 H 2.159876005201369 19.934747395565267 48.581068059745604 H 0.0 **** 0.06
2513 H 1.9850335969325101 21.68975257211565 48.34245159900811 H 0.0 **** 0.06
2514 H 3.5552737900362956 21.009599795626755 48.83268505081319 H 0.0 **** 0.06
2515 H 2.197004999708099 21.0308801219023 49.982723272525384 H 0.0 **** 0.06
2516 C 104.6506919684856 97.33721938887616 83.71170060081529 C 0.0 **** -0.24
2517 H 104.70600264389105 98.39559505421421 83.45785346778705 H 0.0 **** 0.06
2518 H 104.60502636680292 96.74576832647276 82.79698095834486 H 0.0 **** 0.06
2519 H 103.75789427848343 97.1526014259456 84.30945742207153 H 0.0 **** 0.06
2520 H 105.5357235792273 97.0539059525573 84.28318581147673 H 0.0 **** 0.06
2521 C 10.415692070047953 72.06487698896834 85.18956704406718 C 0.0 **** -0.24
2522 H 10.164985762482559 72.30819158215732 86.2219783261415 H 0.0 **** 0.06
2523 H 9.851496344239536 72.71141025379049 84.51682291383722 H 0.0 **** 0.06
2524 H 10.162932192060254 71.0232579216046 84.99012558809565 H 0.0 **** 0.06
2525 H 11.483238315068803 72.2166589010304 85.03033460183661 H 0.0 **** 0.06
2526 C 61.599289822135546 46.05676955321195 32.786412976178354 C 0.0 **** -0.24
2527 H 61.00519435691058 45.979764367906796 31.876342956317757 H 0.0 **** 0.06
2528 H 62.58348133555667 46.45882164977661 32.544566093825836 H 0.0 **** 0.06
2529 H 61.70980093517343 45.06886485988031 33.23306418007593 H 0.0 **** 0.06
2530 H 61.09820301214296 46.7202785671563 33.49109055871847 H 0.0 **** 0.06
2531 C 85.73988490210348 53.03432040417658 94.21760590769085 C 0.0 **** -0.24
2532 H 85.07989010403838 53.8965139420352 94.3046852149435 H 0.0 **** 0.06
2533 H 85.5640420444245 52.53692498782971 93.26342414936096 H 0.0 **** 0.06
2534 H 85.53828588864894 52.33882410040647 95.03271232194848 H 0.0 **** 0.06
2535 H 86.77732157130198 53.36501858643487 94.26960194451053 H 0.0 **** 0.06
2536 C 52.88732406719802 52.83682176156426 26.34961939081117 C 0.0 **** -0.24
2537 H 53.168302046418745 53.887223526402515 26.424393750121126 H 0.0 **** 0.06
2538 H 53.228941942871415 52.3061484603167 27.239227650721148 H 0.0 **** 0.06
2539 H 53.34969432377744 52.39947958264337 25.464809657435254 H 0.0 **** 0.06
2540 H 51.8030138957773 52.75587655357839 26.27162551442862 H 0.0 **** 0.06
2541 C 63.62456789647369 73.8877608434347 87.59159444880541 C 0.0 **** -0.24
2542 H 63.32526148213097 72.91745544507435 87.98956916415443 H 0.0 **** 0.06
2543 H 63.0316739406565 74.11585159443413 86.70640123357353 H 0.0 **** 0.06
2544 H 64.68160519288475 73.85980391460723 87.32550741669479 H 0.0 **** 0.06
2545 H 63.46017142950325 74.6561700159952 88.34784963868549 H 0.0 **** 0.06
2546 C 75.08730134823026 6.350182460813384 97.54999398387417 C 0.0 **** -0.24
2547 H 75.87123403760421 7.10725036500979 97.52953829830946 H 0.0 **** 0.06
2548 H 74.85228910973092 6.0441460944238 96.53018481830478 H 0.0 **** 0.06
2549 H 74.19495591459378 6.76397086848497 98.01980936652714 H 0.0 **** 0.06
2550 H 75.43093274023187 5.486553483563455 98.11884997374014 H 0.0 **** 0.06
2551 C 41.45237152795502 99.99270646806025 79.99372963430724 C 0.0 **** -0.24
2552 H 40.70769659758196 100.27791140815918 79.25013691635651 H 0.0 **** 0.06
2553 H 41.341589047798635 98.93379238553848 80.23081188254329 H 0.0 **** 0.06
2554 H 41.30694067447786 100.5848428952117 80.8976655066848 H 0.0 **** 0.06
2555 H 42.45083073389989 100.17416487739331 79.59659899828594 H 0.0 **** 0.06
2556 C 27.34473685548993 96.7337713918763 41.059396486197265 C 0.0 **** -0.24
2557 H 26.429602704534638 97.319141773624 41.15071311126409 H 0.0 **** 0.06
2558 H 27.668069130130725 96.4097653765318 42.04946523420227 H 0.0 **** 0.06
2559 H 28.123367392346136 97.34525399154174 40.60501431523186 H 0.0 **** 0.06
2560 H 27.15671019607716 95.86105435949004 40.43495224566324 H 0.0 **** 0.06
2561 C 41.17532892864256 33.82793060761983 7.453880971097078 C 0.0 **** -0.24
2562 H 41.49190514983704 34.13341545945652 8.451386474714695 H 0.0 **** 0.06
2563 H 41.85310718040577 34.2529078549624 6.712591046516877 H 0.0 **** 0.06
2564 H 40.16338521391407 34.184990551693495 7.269038576942535 H 0.0 **** 0.06
2565 H 41.19553710379077 32.74012406179762 7.383943286365479 H 0.0 **** 0.06
2566 C 78.13864483672506 49.84413874418999 64.38235162695226 C 0.0 **** -0.24
2567 H 78.25761414252483 49.80055289265579 65.46499851701171 H 0.0 **** 0.06
2568 H 78.40671171983601 48.880507201212936 63.947993307882186 H 0.0 **** 0.06
2569 H 78.78870715546299 50.620118945436616 63.97686492638566 H 0.0 **** 0.06
2570 H 77.10117296456943 50.07673162233033 64.13970078486604 H 0.0 **** 0.06
2571 C 8.239896673939601 56.516563169220206 76.54441493888011 C 0.0 **** -0.24
2572 H 9.329498134506103 56.53216898875269 76.538688211388 H 0.0 **** 0.06
2573 H 7.863936258559942 57.498673117638646 76.83146289802966 H 0.0 **** 0.06
2574 H 7.890609784253652 55.77062540863898 77.25822109323079 H 0.0 **** 0.06
2575 H 7.875691806976594 56.265032522910076 75.54833017547128 H 0.0 **** 0.06
2576 C 97.87251341546204 44.1097334366448 102.71626355245019 C 0.0 **** -0.24
2577 H 98.67685652088856 43.374246361000324 102.73334108462842 H 0.0 **** 0.06
2578 H 98.29742689544759 45.1121027181934 102.65947372534964 H 0.0 **** 0.06
2579 H 97.27791460598542 44.01733299832147 103.62517395875943 H 0.0 **** 0.06
2580 H 97.23779944763879 43.93296573883067 101.84794387246541 H 0.0 **** 0.06
2581 C 61.70616348008798 34.44249387038605 26.62410387788747 C 0.0 **** -0.24
2582 H 60.923586852560845 35.01780522334492 26.129451094684413 H 0.0 **** 0.06
2583 H 61.26315550640771 33.57457339363173 27.115691948553877 H 0.0 **** 0.06
2584 H 62.20295338916793 35.06704636385175 27.366338114132848 H 0.0 **** 0.06
2585 H 62.4336589137975 34.108831787133475 25.88433587157672 H 0.0 **** 0.06
2586 C 88.60614493835735 7.859244068481814 38.0933471292651 C 0.0 **** -0.24
2587 H 89.595156405609 7.441242998909331 38.27340823353699 H 0.0 **** 0.06
2588 H 87.86909794611742 7.055252067243657 38.072965999984845 H 0.0 **** 0.06
2589 H 88.6009026946588 8.38061857431535 37.13584732419754 H 0.0 **** 0.06
2590 H 88.35674832286452 8.560273682468221 38.88987114978563 H 0.0 **** 0.06
2591 C 33.536661432040006 29.836705022695583 50.31114765115211 C 0.0 **** -0.24
2592 H 34.466883436600426 29.393625870482538 50.66745175803126 H 0.0 **** 0.06
2593 H 33.73833099760071 30.828957016968616 49.90725523294569 H 0.0 **** 0.06
2594 H 32.83231349990939 29.916611040934185 51.13948619943696 H 0.0 **** 0.06
2595 H 33.10935226292635 29.206719973031284 49.5307493960502 H 0.0 **** 0.06
2596 C 99.64620812915521 21.422617735683332 101.11881536404098 C 0.0 **** -0.24
2597 H 100.09498755414936 20.538868726696137 100.66448898633512 H 0.0 **** 0.06
2598 H 99.78564990738661 21.384613001726052 102.19937649432735 H 0.0 **** 0.06
2599 H 98.58069852317078 21.446600772214794 100.8901172994403 H 0.0 **** 0.06
2600 H 100.12388021040832 22.317618225865658 100.72170183233622 H 0.0 **** 0.06
2601 C 83.98025710518232 36.70324689361456 34.30524614841468 C 0.0 **** -0.24
2602 H 83.02544049501626 36.44691298784619 34.7643331541382 H 0.0 **** 0.06
2603 H 84.0086879301632 36.31579013607279 33.2859136499257 H 0.0 **** 0.06
2604 H 84.79156023803012 36.262358002993665 34.88379595940461 H 0.0 **** 0.06
2605 H 84.09436669945342 37.786826618939074 34.284325735874205 H 0.0 **** 0.06
2606 C 96.51782253196222 5.984310047607039 81.34274243214784 C 0.0 **** -0.24
2607 H 97.01627944457181 6.40096723473124 80.46701059999549 H 0.0 **** 0.06
2608 H 97.18638737047502 6.042680943250872 82.20261025849064 H 0.0 **** 0.06
2609 H 96.26047908056881 4.942816882639079 81.15310333519325 H 0.0 **** 0.06
2610 H 95.61080840586084 6.551222057243137 81.54908386845764 H 0.0 **** 0.06
2611 C 2.129589323065346 45.78914834864233 72.29714999909874 C 0.0 **** -0.24
2612 H 2.137093020552726 44.8678690282139 72.87925720159816 H 0.0 **** 0.06
2613 H 2.192305410590393 45.54811452544425 71.23520076662876 H 0.0 **** 0.06
2614 H 2.9826177560426856 46.405116306436526 72.58124621544025 H 0.0 **** 0.06
2615 H 1.2059455603939 46.33470411599424 72.49242633544881 H 0.0 **** 0.06
2616 C 35.08576641904634 61.3723912345547 26.318799272200646 C 0.0 **** -0.24
2617 H 35.31044640179202 60.315516750384226 26.46122090342384 H 0.0 **** 0.06
2618 H 34.2685439969084 61.66175794666698 26.980044430578282 H 0.0 **** 0.06
2619 H 34.7943257165182 61.54487765897255 25.283192486464234 H 0.0 **** 0.06
2620 H 35.96937466184595 61.96539841362495 26.551635262677973 H 0.0 **** 0.06
2621 C 65.78359574140586 86.53777077019646 89.92208662068907 C 0.0 **** -0.24
2622 H 65.52622412180375 87.52585363789099 90.30478995884545 H 0.0 **** 0.06
2623 H 66.12446834106777 85.90829208828032 90.74330712029865 H 0.0 **** 0.06
2624 H 66.57833810209087 86.63100972134525 89.18151061800893 H 0.0 **** 0.06
2625 H 64.90586656037328 86.0880560276631 89.45828512567175 H 0.0 **** 0.06
2626 C 23.12340304328553 99.28404506537413 28.96088087421691 C 0.0 **** -0.24
2627 H 23.217460327745098 98.5076867800571 29.71973640516711 H 0.0 **** 0.06
2628 H 23.705771039459258 99.00660112593503 28.082127157008244 H 0.0 **** 0.06
2629 H 23.494509288366892 100.22856827868173 29.35970639827383 H 0.0 **** 0.06
2630 H 22.07548867653076 99.39424790860296 28.68194984485058 H 0.0 **** 0.06
2631 C 13.015647328934342 34.0680756228615 89.54832358117082 C 0.0 **** -0.24
2632 H 13.317473156444208 33.365050986337266 90.32491243813591 H 0.0 **** 0.06
2633 H 12.498277952991785 33.5311752372931 88.75329930027702 H 0.0 **** 0.06
2634 H 13.899965655229533 34.55927348626193 89.14045897717598 H 0.0 **** 0.06
2635 H 12.348462064211365 34.816911759693454 89.97583264008512 H 0.0 **** 0.06
2636 C 96.93037575223883 47.16866890544458 2.817993417386134 C 0.0 **** -0.24
2637 H 96.39854666619658 47.01089155739181 1.879528258163134 H 0.0 **** 0.06
2638 H 96.25692010113448 47.62244536583002 3.545188112685395 H 0.0 **** 0.06
2639 H 97.78039766186782 47.82954338216461 2.6467263438267423 H 0.0 **** 0.06
2640 H 97.28604960352453 46.210905622741635 3.1991027942289065 H 0.0 **** 0.06
2641 C 58.47809067263801 88.32465134671484 69.79249855996241 C 0.0 **** -0.24
2642 H 59.07530015126674 89.18232352659454 70.0992556259915 H 0.0 **** 0.06
2643 H 59.138019730784634 87.50010040680495 69.52188792299813 H 0.0 **** 0.06
2644 H 57.86598231163254 88.59832460638798 68.93233516219308 H 0.0 **** 0.06
2645 H 57.83146329629052 88.01908744055493 70.61554866764541 H 0.0 **** 0.06
2646 C 51.956322301606974 70.21616669055368 44.260817188329014 C 0.0 **** -0.24
2647 H 52.296277639092175 70.21932933537462 45.29655657842753 H 0.0 **** 0.06
2648 H 51.08268552155936 69.57106725036182 44.167215914128064 H 0.0 **** 0.06
2649 H 52.754502821990805 69.84369420811386 43.61870207739602 H 0.0 **** 0.06
2650 H 51.69364742143459 71.23101062352555 43.96201221787493 H 0.0 **** 0.06
2651 C 93.47293022951672 82.151332637753 53.25760146634519 C 0.0 **** -0.24
2652 H 92.53659435108534 82.35413250498422 53.77617352740259 H 0.0 **** 0.06
2653 H 94.30208592643538 82.57314898265443 53.82625473555652 H 0.0 **** 0.06
2654 H 93.44482075934158 82.60443419476795 52.26681716716092 H 0.0 **** 0.06
2655 H 93.60939233952328 81.07433737869778 53.160838856727366 H 0.0 **** 0.06
2656 C 58.03028214740414 70.49229071518312 43.124881227077765 C 0.0 **** -0.24
2657 H 58.038132288259646 70.00764592393251 42.148306839942336 H 0.0 **** 0.06
2658 H 59.00688158866336 70.9376719955585 43.31618146627105 H 0.0 **** 0.06
2659 H 57.810833644135755 69.7532458554726 43.89465437641968 H 0.0 **** 0.06
2660 H 57.2667667913492 71.26977269378915 43.1379103602863 H 0.0 **** 0.06
2661 C 62.31920640075296 80.37247604608928 52.66410082134922 C 0.0 **** -0.24
2662 H 62.37520683770455 79.75844249838687 53.56309719110783 H 0.0 **** 0.06
2663 H 62.077374864766654 81.39884767358762 52.94010534596765 H 0.0 **** 0.06
2664 H 61.54535221906278 79.98099017066147 52.003917350457016 H 0.0 **** 0.06
2665 H 63.280135137985184 80.35100102358604 52.14954031337794 H 0.0 **** 0.06
2666 C 101.965921410416 86.1716741936332 30.703638517146743 C 0.0 **** -0.24
2667 H 101.05736300538678 86.28656156113063 30.112157119055013 H 0.0 **** 0.06
2668 H 101.90251045303252 85.2551080873487 31.291677132804494 H 0.0 **** 0.06
2669 H 102.07385801543543 87.02583775007187 31.371886226847437 H 0.0 **** 0.06
2670 H 102.82841499364967 86.11848420061537 30.039199388669118 H 0.0 **** 0.06
2671 C 73.88840181123967 82.41962506770153 47.44798353127288 C 0.0 **** -0.24
2672 H 72.98176646810268 82.45068949709287 48.053038162204444 H 0.0 **** 0.06
2673 H 73.87756433800001 81.52607856455671 46.82389387436868 H 0.0 **** 0.06
2674 H 74.76001639637002 82.39607280381955 48.10157742900745 H 0.0 **** 0.06
2675 H 73.93227570521327 83.3059593902222 46.81441088712066 H 0.0 **** 0.06
2676 C 75.39567310360198 75.42586683154443 28.672462212798614 C 0.0 **** -0.24
2677 H 76.04718674581252 75.39454438461291 29.54552439073654 H 0.0 **** 0.06
2678 H 74.60166550182939 74.68693678168101 28.78594381553517 H 0.0 **** 0.06
2679 H 75.97616952756752 75.20171409025171 27.778009799827437 H 0.0 **** 0.06
2680 H 74.95656007216817 76.42017118951655 28.581240647468796 H 0.0 **** 0.06
2681 C 43.43834351284795 50.887171872716635 58.26129642939681 C 0.0 **** -0.24
2682 H 42.82578600478212 50.055588382156486 57.91408198761826 H 0.0 **** 0.06
2683 H 43.11485749552378 51.18435082969728 59.25948039435706 H 0.0 **** 0.06
2684 H 43.32936596098807 51.72915498503181 57.57761518423485 H 0.0 **** 0.06
2685 H 44.48366396263134 50.5786721688055 58.293759252712135 H 0.0 **** 0.06
2686 C 10.317888023470772 24.916848926982112 78.94980756927238 C 0.0 **** -0.24
2687 H 10.25959066441743 25.513495133553164 79.85986822991163 H 0.0 **** 0.06
2688 H 10.225583868715319 23.860192436927065 79.2019498625875 H 0.0 **** 0.06
2689 H 11.276126967447539 25.09164073426254 78.46104419358156 H 0.0 **** 0.06
2690 H 9.509267552821683 25.20120239069294 78.27583369062862 H 0.0 **** 0.06
2691 C 59.419794064661 58.63503224524251 9.619087875821899 C 0.0 **** -0.24
2692 H 58.521514591743916 59.053223237870185 10.072133061814345 H 0.0 **** 0.06
2693 H 60.16587101264175 59.421666543089145 9.499378007834515 H 0.0 **** 0.06
2694 H 59.17446431654634 58.215924123266376 8.643633945929478 H 0.0 **** 0.06
2695 H 59.81932588202335 57.85034747325875 10.26217409107452 H 0.0 **** 0.06
2696 C 88.8606791766254 44.6080785234467 69.74309993210221 C 0.0 **** -0.24
2697 H 89.71378688002886 43.93287849480842 69.67318643713355 H 0.0 **** 0.06
2698 H 88.22852602045232 44.30932338776841 70.57983376340383 H 0.0 **** 0.06
2699 H 88.28533211326636 44.56266189181058 68.81823572043783 H 0.0 **** 0.06
2700 H 89.21550564316864 45.62580710151775 69.90080965151992 H 0.0 **** 0.06
2701 C 95.00351439749393 36.09045671297095 49.189111045324125 C 0.0 **** -0.24
2702 H 94.66793568427165 37.11900143096942 49.323645134898186 H 0.0 **** 0.06
2703 H 94.5229140290555 35.663719714852846 48.30857283344176 H 0.0 **** 0.06
2704 H 94.73830514243492 35.50380097616989 50.06821045301069 H 0.0 **** 0.06
2705 H 96.08518368754018 36.07640670438931 49.05517504029501 H 0.0 **** 0.06
2706 C 20.472117770660297 29.36470659748717 60.0073178958754 C 0.0 **** -0.24
2707 H 21.295383994238808 28.6924870891497 60.24844307186982 H 0.0 **** 0.06
2708 H 20.863671625226488 30.257534057403255 59.51779516455671 H 0.0 **** 0.06
2709 H 19.955903729085012 29.649949948963503 60.92376101077906 H 0.0 **** 0.06
2710 H 19.77365427985438 28.85983521329615 59.339132744844605 H 0.0 **** 0.06
2711 C 96.9097974306574 19.71259578137267 58.97264781074732 C 0.0 **** -0.24
2712 H 97.02353356666592 20.62281340477142 59.56172988709794 H 0.0 **** 0.06
2713 H 97.63220021610282 18.968705718330057 59.31110545173134 H 0.0 **** 0.06
2714 H 97.08399944593553 19.9372257752064 57.92091415725785 H 0.0 **** 0.06
2715 H 95.89935197441378 19.322951308256165 59.099537170468075 H 0.0 **** 0.06
2716 C 54.17933605539426 33.98556077573295 44.2188073314955 C 0.0 **** -0.24
2717 H 54.061319603257694 33.01356948009468 44.69794901543497 H 0.0 **** 0.06
2718 H 53.38630832021964 34.65464868602147 44.5531845131074 H 0.0 **** 0.06
2719 H 54.12199921801561 33.86665170274601 43.13675888814191 H 0.0 **** 0.06
2720 H 55.14840357919367 34.40710907846378 44.48612900496187 H 0.0 **** 0.06
2721 C 100.30799479669852 90.40794270675163 66.33781704063091 C 0.0 **** -0.24
2722 H 101.16273673516821 89.80651287280335 66.64767521859602 H 0.0 **** 0.06
2723 H 100.22321701441487 90.38614374901206 65.25034964382138 H 0.0 **** 0.06
2724 H 100.44708804196281 91.43633551189114 66.67142462556143 H 0.0 **** 0.06
2725 H 99.39887085142891 90.00149847279563 66.78122143131412 H 0.0 **** 0.06
2726 C 36.487656318550876 94.20500872275699 93.23707658380245 C 0.0 **** -0.24
2727 H 36.6512160681732 95.25044173687851 93.49896727896113 H 0.0 **** 0.06
2728 H 36.123600210572306 94.13968272125527 92.21163210358466 H 0.0 **** 0.06
2729 H 35.750150258272186 93.77206096837614 93.91294991743554 H 0.0 **** 0.06
2730 H 37.426424623964834 93.65828683496969 93.32586257429423 H 0.0 **** 0.06
2731 C 39.204179473734555 103.74462712839579 28.91536529055452 C 0.0 **** -0.24
2732 H 39.84399926587545 103.0848929524831 29.500003709187467 H 0.0 **** 0.06
2733 H 39.12669339735402 104.71040000953535 29.414523929743567 H 0.0 **** 0.06
2734 H 38.21171801949848 103.30140013750606 28.825260516737615 H 0.0 **** 0.06
2735 H 39.63277170881577 103.88083067084311 27.92330787241933 H 0.0 **** 0.06
2736 C 83.78591848589132 31.038224253356418 92.28462250506865 C 0.0 **** -0.24
2737 H 83.22785764160389 31.274821325141573 93.19103889300831 H 0.0 **** 0.06
2738 H 83.4113212513053 30.105024756558976 91.86178044858843 H 0.0 **** 0.06
2739 H 84.84334065138425 30.929353622880598 92.52665820244277 H 0.0 **** 0.06
2740 H 83.65962096702067 31.84215954469326 91.55954548391426 H 0.0 **** 0.06
2741 C 86.46397601910815 17.48100189594608 50.00597424643618 C 0.0 **** -0.24
2742 H 85.73323770983386 18.02646616368922 49.40756549622975 H 0.0 **** 0.06
2743 H 87.43340236593302 17.510120749006745 49.50879988604382 H 0.0 **** 0.06
2744 H 86.14222855545248 16.44547287903984 50.11560052459828 H 0.0 **** 0.06
2745 H 86.54582652660454 17.942811386289122 50.989324714505045 H 0.0 **** 0.06
2746 C 21.43574824749922 44.23978392412917 58.59306100460793 C 0.0 **** -0.24
2747 H 20.500631597466423 43.71558460325952 58.39613303356117 H 0.0 **** 0.06
2748 H 22.184490726328676 43.932296425505974 57.862145889403166 H 0.0 **** 0.06
2749 H 21.784920891721953 43.99597398088048 59.5954635158991 H 0.0 **** 0.06
2750 H 21.271654349316933 45.31440603666402 58.51614420198973 H 0.0 **** 0.06
2751 C 61.42498399429155 88.34330251973259 75.38534539573098 C 0.0 **** -0.24
2752 H 61.69984062980245 87.75271581091863 74.51079069396013 H 0.0 **** 0.06
2753 H 62.32781951365081 88.65646894708024 75.91043163416201 H 0.0 **** 0.06
2754 H 60.80829646531549 87.73902698626547 76.05194824393405 H 0.0 **** 0.06
2755 H 60.86429838324767 89.22202024902677 75.0680388194512 H 0.0 **** 0.06
2756 C 34.85873908691137 96.6600813918376 9.113729764046951 C 0.0 **** -0.24
2757 H 35.468431667039404 97.44949555653568 9.55240037633557 H 0.0 **** 0.06
2758 H 35.441652422283795 96.12804835967671 8.361690125733148 H 0.0 **** 0.06
2759 H 33.97724983575658 97.09883753312607 8.646666132050456 H 0.0 **** 0.06
2760 H 34.54965699866803 95.96431280882177 9.893311071723133 H 0.0 **** 0.06
2761 C 23.622244307161225 27.20247445596371 22.058219833969673 C 0.0 **** -0.24
2762 H 24.37066523872778 26.81260939597543 22.748260455856695 H 0.0 **** 0.06
2763 H 23.012601629019088 26.38022492135306 21.68170252954056 H 0.0 **** 0.06
2764 H 24.119603436352804 27.696880943912632 21.2241582060949 H 0.0 **** 0.06
2765 H 22.986106357106763 27.917762620690482 22.578378464186613 H 0.0 **** 0.06
2766 C 72.41826085806841 101.78166262212515 47.1798388927499 C 0.0 **** -0.24
2767 H 72.8275505822525 101.44691679412878 46.22734910275011 H 0.0 **** 0.06
2768 H 72.8153535434431 102.768820876959 47.41786351212647 H 0.0 **** 0.06
2769 H 72.69871819128635 101.07845196090386 47.9637637226341 H 0.0 **** 0.06
2770 H 71.33225880377516 101.8343285458155 47.10947909744368 H 0.0 **** 0.06
2771 C 82.99361149376861 96.89078047476536 85.87557140904786 C 0.0 **** -0.24
2772 H 83.79136909176682 96.32338613120456 86.35453504567994 H 0.0 **** 0.06
2773 H 83.41737242287743 97.76695675194603 85.3829949217551 H 0.0 **** 0.06
2774 H 82.27197532587311 97.21000458858563 86.62700928249879 H 0.0 **** 0.06
2775 H 82.49558269501537 96.26433979435143 85.13571798783008 H 0.0 **** 0.06
2776 C 66.79242936539453 39.91081373126201 50.57729467429138 C 0.0 **** -0.24
2777 H 66.31805214846707 39.08760267739643 50.04273921358515 H 0.0 **** 0.06
2778 H 66.144353683622 40.78684126430309 50.54243202741853 H 0.0 **** 0.06
2779 H 67.74724152485919 40.14576667209451 50.10765062583508 H 0.0 **** 0.06
2780 H 66.9584675767208 39.622706392875884 51.61453529477728 H 0.0 **** 0.06
2781 C 14.36017962609333 59.63436966777178 104.37493514710725 C 0.0 **** -0.24
2782 H 14.907617139820513 58.69145040347195 104.40327602281761 H 0.0 **** 0.06
2783 H 14.846467191134764 60.31632320973429 103.67692618735065 H 0.0 **** 0.06
2784 H 14.350902010009644 60.07777915939454 105.3705317757755 H 0.0 **** 0.06
2785 H 13.336401175350758 59.449594145834965 104.05046115429826 H 0.0 **** 0.06
2786 C 24.82358713438191 74.5127617469755 10.707979325862496 C 0.0 **** -0.24
2787 H 24.345232338767374 75.38578143990344 10.265761120943282 H 0.0 **** 0.06
2788 H 25.23052335570648 74.77734356551122 11.684898547915381 H 0.0 **** 0.06
2789 H 25.629596626948512 74.17171813481795 10.058673053892662 H 0.0 **** 0.06
2790 H 24.088552832140948 73.71558088830115 10.824138759076462 H 0.0 **** 0.06
2791 C 53.54959815130787 34.49778860754628 54.34012691153802 C 0.0 **** -0.24
2792 H 54.36740906414987 33.84249701300479 54.64176410267032 H 0.0 **** 0.06
2793 H 53.755445757339714 34.900212073873774 53.347736427579264 H 0.0 **** 0.06
2794 H 53.4572677268801 35.31673184887802 55.05361046029074 H 0.0 **** 0.06
2795 H 52.618847542557 33.92999071186834 54.31609329044349 H 0.0 **** 0.06
2796 C 63.8463375622689 61.9798536791356 10.702535316040013 C 0.0 **** -0.24
2797 H 63.775358165011994 61.28960827236574 11.542960147008955 H 0.0 **** 0.06
2798 H 63.925969137169716 63.001191032838506 11.076286005948077 H 0.0 **** 0.06
2799 H 62.95440091914037 61.88839686449876 10.08209320107548 H 0.0 **** 0.06
2800 H 64.72764851073157 61.74040504894231 10.108536143835565 H 0.0 **** 0.06
2801 C 64.19071479116639 17.45608509911439 55.32201174724066 C 0.0 **** -0.24
2802 H 64.40819736866938 17.708798534941394 56.360004029285165 H 0.0 **** 0.06
2803 H 63.11477454873325 17.50871192336274 55.153893497262466 H 0.0 **** 0.06
2804 H 64.54241609816889 16.44553693710138 55.11272883413215 H 0.0 **** 0.06
2805 H 64.6968578297112 18.161262688036373 54.66304021421771 H 0.0 **** 0.06
2806 C 60.020038068706725 3.4722707770559103 76.13838389423324 C 0.0 **** -0.24
2807 H 60.020075410967905 3.554751954842784 77.22510812144016 H 0.0 **** 0.06
2808 H 60.53914057175973 4.328800927883697 75.70826716619396 H 0.0 **** 0.06
2809 H 58.99261723020874 3.45024745287607 75.77603314197889 H 0.0 **** 0.06
2810 H 60.52869207838282 2.5539244455492014 75.84425323601398 H 0.0 **** 0.06
2811 C 97.38896111627633 45.07506463774118 85.42269985126842 C 0.0 **** -0.24
2812 H 97.56926655037067 44.00707339529362 85.29658717943721 H 0.0 **** 0.06
2813 H 98.22204772600601 45.63641783692577 84.99609683483857 H 0.0 **** 0.06
2814 H 97.300908829989 45.30530757935114 86.48426222367948 H 0.0 **** 0.06
2815 H 96.46605312631978 45.34991782106263 84.91254570592316 H 0.0 **** 0.06
2816 C 88.515922626017 21.03206879738724 12.95529300273381 C 0.0 **** -0.24
2817 H 87.42743164660328 21.05863577405151 12.905924146202551 H 0.0 **** 0.06
2818 H 88.93040555023381 21.712978756312566 12.211221577736069 H 0.0 **** 0.06
2819 H 88.86341285133125 20.017685303850442 12.753346254102155 H 0.0 **** 0.06
2820 H 88.8425585128671 21.336105361025062 13.949814232889253 H 0.0 **** 0.06
2821 C 15.17943025535586 95.89882053507517 14.08630466665177 C 0.0 **** -0.24
2822 H 15.240714643080377 96.6499709195916 13.297621511970746 H 0.0 **** 0.06
2823 H 15.31891014184091 94.9079248950121 13.655307158179355 H 0.0 **** 0.06
2824 H 14.20212850016608 95.95363476937082 14.565008487869264 H 0.0 **** 0.06
2825 H 15.957393869439791 96.08718361537088 14.826848196047209 H 0.0 **** 0.06
2826 C 105.6354375088152 34.74071233458133 63.35283600615162 C 0.0 **** -0.24
2827 H 105.55741905799603 33.96336944702513 62.593405418899806 H 0.0 **** 0.06
2828 H 105.9136202589478 35.68352508734948 62.88050324545378 H 0.0 **** 0.06
2829 H 106.39564856976999 34.461875447631286 64.08229390465112 H 0.0 **** 0.06
2830 H 104.6748292287098 34.855476169452785 63.85613885199359 H 0.0 **** 0.06
2831 C 14.14870179065339 25.043847802882738 85.49836614792727 C 0.0 **** -0.24
2832 H 14.64231814102098 24.544165459915178 84.66441759159395 H 0.0 **** 0.06
2833 H 14.2775703890468 24.451933017455588 86.40468976108815 H 0.0 **** 0.06
2834 H 13.08600800507925 25.150213609232537 85.28099795706893 H 0.0 **** 0.06
2835 H 14.591447105224574 26.030427924608887 85.6424947390527 H 0.0 **** 0.06
2836 C 62.538008997730856 28.120934327392206 45.122131585637305 C 0.0 **** -0.24
2837 H 62.17437363880168 28.909792622263694 45.78075942711786 H 0.0 **** 0.06
2838 H 61.72042047871625 27.438131601930763 44.88842190748713 H 0.0 **** 0.06
2839 H 63.33881630517806 27.573531683023305 45.617778274028666 H 0.0 **** 0.06
2840 H 62.91623241663018 28.56358478141277 44.199988220841504 H 0.0 **** 0.06
2841 C 6.108461375051149 22.074663889062634 25.915673474440297 C 0.0 **** -0.24
2842 H 5.25356885625439 22.750895692047465 25.899028617561328 H 0.0 **** 0.06
2843 H 5.758040985238267 21.047401407789238 26.009785098457456 H 0.0 **** 0.06
2844 H 6.748871480633909 22.320633944139956 26.763212485287426 H 0.0 **** 0.06
2845 H 6.674289196225004 22.183163816523972 24.989520450895327 H 0.0 **** 0.06
2846 C 14.427412297564388 65.08763795728802 44.314771699480815 C 0.0 **** -0.24
2847 H 13.790406723380215 65.08887595888869 45.199534998469716 H 0.0 **** 0.06
2848 H 13.804778889776458 65.14296191447949 43.4208110240327 H 0.0 **** 0.06
2849 H 15.016437284581343 64.17164852503342 44.29178129130588 H 0.0 **** 0.06
2850 H 15.094601154517306 65.94851529068278 44.346550851625466 H 0.0 **** 0.06
2851 C 103.19496018440034 51.68553576197377 39.47702494018497 C 0.0 **** -0.24
2852 H 103.13755829846724 52.75440953670966 39.68536512977433 H 0.0 **** 0.06
2853 H 102.90345149441708 51.1262092950077 40.36627255277067 H 0.0 **** 0.06
2854 H 104.21600162898903 51.424369839673375 39.200260778420784 H 0.0 **** 0.06
2855 H 102.52141565779007 51.44010015777633 38.65563169424375 H 0.0 **** 0.06
2856 C 26.450495483400488 6.291016143307729 5.052820071869235 C 0.0 **** -0.24
2857 H 26.572728360440976 7.045938848122205 5.828816522204875 H 0.0 **** 0.06
2858 H 25.475837425742043 5.814474111880827 5.160230930425769 H 0.0 **** 0.06
2859 H 27.235134195763294 5.5400514441435575 5.149411258353268 H 0.0 **** 0.06
2860 H 26.51907714747273 6.7631362506936625 4.073212075387431 H 0.0 **** 0.06
2861 C 89.68172003929169 42.671867017346074 80.23908885676846 C 0.0 **** -0.24
2862 H 90.53599123643204 43.34855082815568 80.19836409625282 H 0.0 **** 0.06
2863 H 89.56885833427793 42.29159527161147 81.25498078067866 H 0.0 **** 0.06
2864 H 89.84545825381497 41.83909319995928 79.55499655103725 H 0.0 **** 0.06
2865 H 88.77888354421066 43.208645593317044 79.94871030033968 H 0.0 **** 0.06
2866 C 12.067028534596318 102.90564194593324 70.73774889364798 C 0.0 **** -0.24
2867 H 12.590735423006308 102.07908951461792 71.21699604916186 H 0.0 **** 0.06
2868 H 11.847119537088616 103.67578689719896 71.47758166386436 H 0.0 **** 0.06
2869 H 11.135591682417413 102.54222881779394 70.30344830275189 H 0.0 **** 0.06
2870 H 12.694790770481802 103.32574673227948 69.95126539206998 H 0.0 **** 0.06
2871 C 17.292605710077055 47.8688491279452 96.363673681054 C 0.0 **** -0.24
2872 H 17.42896563055058 46.83474168851566 96.6782184762661 H 0.0 **** 0.06
2873 H 17.90428751275124 48.52194693310139 96.98762994907966 H 0.0 **** 0.06
2874 H 16.243009952123202 48.14506515323035 96.46905016416841 H 0.0 **** 0.06
2875 H 17.59347579837504 47.975497957518854 95.32205241220802 H 0.0 **** 0.06
2876 C 1.2872948140031415 48.27351104165215 106.92252891666917 C 0.0 **** -0.24
2877 H 0.6413262257933079 47.77947320228255 107.64831463167211 H 0.0 **** 0.06
2878 H 2.0555687209607783 48.84066567090487 107.44766939149224 H 0.0 **** 0.06
2879 H 0.6927954926234188 48.94855896755192 106.30802952803992 H 0.0 **** 0.06
2880 H 1.759101736049427 47.52319809427433 106.28721366660712 H 0.0 **** 0.06
2881 C 94.25490985231463 85.50059191475287 48.04289008410643 C 0.0 **** -0.24
2882 H 94.9747522486202 86.31523369485159 48.1189649078467 H 0.0 **** 0.06
2883 H 94.7811696979251 84.5459279534862 48.0747500992527 H 0.0 **** 0.06
2884 H 93.7102731351276 85.58480314944005 47.10197985228433 H 0.0 **** 0.06
2885 H 93.55344432758548 85.55640286123351 48.875865477042 H 0.0 **** 0.06
2886 C 94.99935941548483 26.447053033735678 36.73004693858411 C 0.0 **** -0.24
2887 H 95.50244075139523 27.1600770776333 37.383069588829414 H 0.0 **** 0.06
2888 H 95.54195271835259 25.502387457445522 36.7371255176991 H 0.0 **** 0.06
2889 H 94.9714076742224 26.842463128732216 35.71437755714362 H 0.0 **** 0.06
2890 H 93.98070638433465 26.284908772051633 37.084910333872415 H 0.0 **** 0.06
2891 C 44.29087339576208 61.950038506352925 15.122997391153817 C 0.0 **** -0.24
2892 H 43.76293356040543 61.81283727945868 16.067138852890928 H 0.0 **** 0.06
2893 H 44.70884466032554 62.95594993756649 15.084906480127234 H 0.0 **** 0.06
2894 H 43.59450875698023 61.813515180749775 14.295490056323711 H 0.0 **** 0.06
2895 H 45.09482976285752 61.21776558716708 15.046765824769508 H 0.0 **** 0.06
2896 C 46.42435652834246 53.40542935712347 44.36748601847148 C 0.0 **** -0.24
2897 H 45.42496527469106 52.972649110936516 44.32632690215138 H 0.0 **** 0.06
2898 H 47.137524337712506 52.64282542059317 44.68319901994471 H 0.0 **** 0.06
2899 H 46.43423018632211 54.22984492747503 45.07986312771823 H 0.0 **** 0.06
2900 H 46.70041987741425 53.774731037171875 43.380181622802354 H 0.0 **** 0.06
2901 C 106.90580523251398 71.52908132247157 86.87140344439018 C 0.0 **** -0.24
2902 H 107.24206922323437 71.46311306817498 85.83686277013402 H 0.0 **** 0.06
2903 H 106.55224636685642 72.54028013306137 87.07541778070117 H 0.0 **** 0.06
2904 H 107.73408488884982 71.29093475058218 87.53909105838896 H 0.0 **** 0.06
2905 H 106.0927691093497 70.82088997061854 87.03499450508382 H 0.0 **** 0.06
2906 C 37.334384239788875 86.36752623514457 21.69425560403144 C 0.0 **** -0.24
2907 H 36.28098644006246 86.26426835565962 21.955742926732313 H 0.0 **** 0.06
2908 H 37.844189763380115 86.94827716786176 22.462950203851165 H 0.0 **** 0.06
2909 H 37.421858744510615 86.87633934759253 20.734588418326013 H 0.0 **** 0.06
2910 H 37.78870403687435 85.37956182844192 21.62387428878182 H 0.0 **** 0.06
2911 C 100.0877561573718 72.05149088058596 64.66518538075564 C 0.0 **** -0.24
2912 H 99.66794664584404 71.95788588198246 63.66425245157305 H 0.0 **** 0.06
2913 H 99.40557470462544 71.60431068487594 65.38883107231109 H 0.0 **** 0.06
2914 H 100.2285907800424 73.10588521696985 64.90296448111063 H 0.0 **** 0.06
2915 H 101.0482387482302 71.53844118031162 64.70580400301465 H 0.0 **** 0.06
2916 C 28.545914747289146 100.15505683708233 3.8623647366368346 C 0.0 **** -0.24
2917 H 28.60139319206469 99.07317604590332 3.7359334557543775 H 0.0 **** 0.06
2918 H 29.255820072337038 100.63595018984785 3.1888161071045147 H 0.0 **** 0.06
2919 H 28.78811950885146 100.4134795415863 4.892614807910888 H 0.0 **** 0.06
2920 H 27.536374557739848 100.49457342373063 3.630119579196389 H 0.0 **** 0.06
2921 C 85.42018355973784 63.87508532232704 75.29675260684465 C 0.0 **** -0.24
2922 H 85.50065905213768 64.67394822619451 74.55852870200303 H 0.0 **** 0.06
2923 H 84.46833100845765 63.96002521348146 75.8199214031441 H 0.0 **** 0.06
2924 H 86.23852248389858 63.95862432171896 76.0116612247111 H 0.0 **** 0.06
2925 H 85.47434819295029 62.90922755127622 74.79397861324907 H 0.0 **** 0.06
2926 C 11.56143200300454 56.16684429739926 54.925147478255724 C 0.0 **** -0.24
2927 H 12.285476721620796 55.353359379070135 54.972951753254904 H 0.0 **** 0.06
2928 H 10.815024669808281 55.94342961010735 54.16328289129845 H 0.0 **** 0.06
2929 H 12.073877994798465 57.09472791044059 54.671640474247596 H 0.0 **** 0.06
2930 H 11.072069903806778 56.27376693699934 55.89302762255622 H 0.0 **** 0.06
2931 C 81.28478683396372 26.389491729836607 99.24838716873239 C 0.0 **** -0.24
2932 H 82.22536886225726 26.928191712085606 99.36213896860585 H 0.0 **** 0.06
2933 H 81.44621559120047 25.500843243412987 98.63875014605554 H 0.0 **** 0.06
2934 H 80.55323005750475 27.035867350666365 98.76223595467252 H 0.0 **** 0.06
2935 H 80.9139510586104 26.095346965122445 100.22962023742866 H 0.0 **** 0.06
2936 C 40.63017208468568 60.00039055643553 53.7589756366665 C 0.0 **** -0.24
2937 H 41.00835823208524 59.12075307103777 54.28071971278536 H 0.0 **** 0.06
2938 H 41.41791584522829 60.75209818925836 53.69669262652568 H 0.0 **** 0.06
2939 H 39.77982259494118 60.40827028074577 54.30479204315195 H 0.0 **** 0.06
2940 H 40.31600051495013 59.71847507648558 52.75408778792495 H 0.0 **** 0.06
2941 C 15.156194494466359 102.30726160318923 16.886871581764353 C 0.0 **** -0.24
2942 H 16.09169166193647 101.81828218576403 17.15871324269591 H 0.0 **** 0.06
2943 H 15.3400579278842 103.02347578632592 16.08646096349983 H 0.0 **** 0.06
2944 H 14.751379155314375 102.82696612620221 17.75539243134719 H 0.0 **** 0.06
2945 H 14.441230519580795 101.55699575603484 16.54604834521578 H 0.0 **** 0.06
2946 C 69.72327496962343 73.19820761691108 76.97809462772278 C 0.0 **** -0.24
2947 H 70.48053794185569 73.26697825220879 77.75828373377308 H 0.0 **** 0.06
2948 H 70.20756806549754 73.19068664260024 76.00119014006387 H 0.0 **** 0.06
2949 H 69.05448691783809 74.05663225946162 77.04587672427567 H 0.0 **** 0.06
2950 H 69.15023459514605 72.2802323696302 77.10722581936372 H 0.0 **** 0.06
2951 C 43.87112043993696 35.58432195696099 71.50161492789002 C 0.0 **** -0.24
2952 H 44.23062214330895 36.54816340336839 71.86310342800402 H 0.0 **** 0.06
2953 H 42.781970627247944 35.59890614625135 71.45197893262525 H 0.0 **** 0.06
2954 H 44.19390811725083 34.79743976593602 72.18348093375525 H 0.0 **** 0.06
2955 H 44.27805176079602 35.39450622774689 70.50799697665059 H 0.0 **** 0.06
2956 C 85.62732500827275 91.49345450275655 92.01102691574566 C 0.0 **** -0.24
2957 H 85.929720581984 91.11550728096404 92.98804357689838 H 0.0 **** 0.06
2958 H 85.97702124593731 92.51906905864851 91.894910548246 H 0.0 **** 0.06
2959 H 84.54065713246152 91.46824167283572 91.93305305281584 H 0.0 **** 0.06
2960 H 86.0618669214704 90.86907581816516 91.23017334097896 H 0.0 **** 0.06
2961 C 72.20672753681998 86.18893373966112 91.08996841265444 C 0.0 **** -0.24
2962 H 72.57408857856487 85.43731136708548 90.3907292442555 H 0.0 **** 0.06
2963 H 71.5698752127314 86.89696960591624 90.56015239405728 H 0.0 **** 0.06
2964 H 73.05245356187822 86.71866662666417 91.53043560566516 H 0.0 **** 0.06
2965 H 71.63247779657974 85.70206570288171 91.87782209887487 H 0.0 **** 0.06
2966 C 69.96185281684143 23.34690865169776 44.134301192719875 C 0.0 **** -0.24
2967 H 70.95021623710898 23.15167998023429 44.5492134457844 H 0.0 **** 0.06
2968 H 69.22408077858819 22.726723262242814 44.644061176761 H 0.0 **** 0.06
2969 H 69.96211728260448 23.112348791946488 43.070181239060446 H 0.0 **** 0.06
2970 H 69.71069754800743 24.398957337552787 44.27452732220797 H 0.0 **** 0.06
2971 C 63.646601965878006 13.318403881920485 44.80617504457089 C 0.0 **** -0.24
2972 H 63.828990464138116 13.017508235472295 45.837824186951934 H 0.0 **** 0.06
2973 H 64.1210435232856 12.604668440811945 44.13175996958768 H 0.0 **** 0.06
2974 H 64.06422167186727 14.311041983469618 44.637402732759 H 0.0 **** 0.06
2975 H 62.57340995259929 13.338308640802232 44.61747317905875 H 0.0 **** 0.06
2976 C 59.113437033048626 16.75913024322665 106.96395291400707 C 0.0 **** -0.24
2977 H 60.160970009224286 16.830941582209846 107.25515467369513 H 0.0 **** 0.06
2978 H 58.65004837762905 17.743876129762484 107.0275470839205 H 0.0 **** 0.06
2979 H 58.596587482374105 16.0705476570171 107.63298303817255 H 0.0 **** 0.06
2980 H 59.04629347063474 16.389834786970823 105.94060921999359 H 0.0 **** 0.06
2981 C 9.695636039028045 27.732526440502653 11.708133192570244 C 0.0 **** -0.24
2982 H 8.938163836786657 28.407160353694593 11.307892391753555 H 0.0 **** 0.06
2983 H 9.314691269524133 27.25302356645659 12.610413543654033 H 0.0 **** 0.06
2984 H 10.594758571496044 28.299781878845778 11.949414482801487 H 0.0 **** 0.06
2985 H 9.93343798541531 26.971655177883463 10.964121831173486 H 0.0 **** 0.06
2986 C 27.20459172897307 16.212139328352052 56.569018807941575 C 0.0 **** -0.24
2987 H 28.16960376726672 16.340305952181822 57.05795717503372 H 0.0 **** 0.06
2988 H 26.860871339164646 15.186445995786528 56.70576757292366 H 0.0 **** 0.06
2989 H 27.307245765885 16.42233114292122 55.50362248043598 H 0.0 **** 0.06
2990 H 26.480945439951938 16.900020013198354 57.00579323101795 H 0.0 **** 0.06
2991 C 40.59549497065916 12.970600410596333 19.432016472323937 C 0.0 **** -0.24
2992 H 40.03447390372989 12.077863179120783 19.710419700235605 H 0.0 **** 0.06
2993 H 40.81819289126281 13.552225509874887 20.32638975721646 H 0.0 **** 0.06
2994 H 40.00115327369437 13.572648100696966 18.745081097289585 H 0.0 **** 0.06
2995 H 41.526612578891914 12.677466998760508 18.9475079696126 H 0.0 **** 0.06
2996 C 22.780800180245407 35.51666316189443 68.90778884086728 C 0.0 **** -0.24
2997 H 23.133783129224085 36.3994876195616 68.37425370004098 H 0.0 **** 0.06
2998 H 23.370101114941534 34.65038996063089 68.60490946218805 H 0.0 **** 0.06
2999 H 21.731517322112907 35.34455235237894 68.66961448203644 H 0.0 **** 0.06
3000 H 22.890141095373185 35.67397596311065 69.98117692968664 H 0.0 **** 0.06
3001 C 39.62634502916785 104.6212179341334 37.313617271863365 C 0.0 **** -0.24
3002 H 38.63831341111518 105.06528728326512 37.19831949447651 H 0.0 **** 0.06
3003 H 40.198755383475856 104.7648290660432 36.396721979856636 H 0.0 **** 0.06
3004 H 39.5244968107702 103.55511375257065 37.51547985676707 H 0.0 **** 0.06
3005 H 40.14493393698105 105.09967663118314 38.14481132656226 H 0.0 **** 0.06
3006 C 74.96178696089301 15.501163801797308 100.00738470637668 C 0.0 **** -0.24
3007 H 74.55818218790394 14.54421744537019 99.67463611730064 H 0.0 **** 0.06
3008 H 75.73986796491883 15.826124688388003 99.31702823500208 H 0.0 **** 0.06
3009 H 75.38478734603976 15.388919985977424 101.0054371527922 H 0.0 **** 0.06
3010 H 74.16316181914432 16.242813360193438 100.03227525662375 H 0.0 **** 0.06
3011 C 55.41560453557825 89.67731664200261 83.84553221098648 C 0.0 **** -0.24
3012 H 56.00833992438328 90.2548980147406 84.55540562130463 H 0.0 **** 0.06
3013 H 55.13959460499608 88.72307328561817 84.29489939877732 H 0.0 **** 0.06
3014 H 56.00183850718566 89.49938273333674 82.94381719137007 H 0.0 **** 0.06
3015 H 54.513875028934976 90.23343909329373 83.58840297934924 H 0.0 **** 0.06
3016 C 33.97463848447654 29.920206435390952 79.83924520251314 C 0.0 **** -0.24
3017 H 33.66559480614232 30.270897094943933 78.8543742515562 H 0.0 **** 0.06
3018 H 34.04598487264306 28.832802467817828 79.83268872157012 H 0.0 **** 0.06
3019 H 33.24122440165074 30.233317834652908 80.58221810559958 H 0.0 **** 0.06
3020 H 34.94659192814342 30.3473155759541 80.08670429839593 H 0.0 **** 0.06
3021 C 58.65603912130649 86.40216887815671 16.277237731896705 C 0.0 **** -0.24
3022 H 58.07950273883583 87.30062680805486 16.05546332513417 H 0.0 **** 0.06
3023 H 57.98297953134136 85.6139577999636 16.617209602904182 H 0.0 **** 0.06
3024 H 59.38447186071872 86.62089881263324 17.057895568025884 H 0.0 **** 0.06
3025 H 59.175624262027355 86.07329071237655 15.377157652810638 H 0.0 **** 0.06
3026 C 99.65692169518131 7.914137772381821 35.53798840607364 C 0.0 **** -0.24
3027 H 100.34744365896772 7.334191582796194 36.15038169940958 H 0.0 **** 0.06
3028 H 99.20653525957017 7.2656027251751425 34.78612532814115 H 0.0 **** 0.06
3029 H 100.1982539872875 8.721727150051692 35.046378398553365 H 0.0 **** 0.06
3030 H 98.8750885802278 8.333012123487578 36.17203414151962 H 0.0 **** 0.06
3031 C 19.819597963737394 41.68350933546445 22.24318477292269 C 0.0 **** -0.24
3032 H 20.683507880018894 42.013060280450645 21.66579361546559 H 0.0 **** 0.06
3033 H 19.38643995799444 42.535249312533004 22.766478960269865 H 0.0 **** 0.06
3034 H 20.133764793107645 40.932128663730744 22.968812139622997 H 0.0 **** 0.06
3035 H 19.077414690036235 41.252449147577984 21.572096284302035 H 0.0 **** 0.06
3036 C 96.89492764146004 13.972322492852161 53.61227909668975 C 0.0 **** -0.24
3037 H 96.63836909884755 14.323748434234695 52.61275408867439 H 0.0 **** 0.06
3038 H 96.70888619587083 14.767655506132993 54.33514682975775 H 0.0 **** 0.06
3039 H 97.94843412018173 13.694146670128337 53.64008224232694 H 0.0 **** 0.06
3040 H 96.2832119738696 13.105041897624016 53.85950569387305 H 0.0 **** 0.06
3041 C 90.22918668399173 35.07823884645748 87.01133624408571 C 0.0 **** -0.24
3042 H 90.12490899607275 34.7189248508227 85.98782254185068 H 0.0 **** 0.06
3043 H 89.73780736254791 36.04616511683375 87.10912067722624 H 0.0 **** 0.06
3044 H 91.28696046622993 35.180370699247646 87.2549105499781 H 0.0 **** 0.06
3045 H 89.76674571460052 34.365238290842 87.69438770336136 H 0.0 **** 0.06
3046 C 18.777361379150662 23.113424971221207 87.3621610548866 C 0.0 **** -0.24
3047 H 19.293046656102362 23.533953498402866 88.22535347250422 H 0.0 **** 0.06
3048 H 19.26765544192112 22.1875716726351 87.06181443033338 H 0.0 **** 0.06
3049 H 18.808712887184157 23.826327421508523 86.53786565093131 H 0.0 **** 0.06
3050 H 17.738763384096387 22.90763567339019 87.62405367952155 H 0.0 **** 0.06
3051 C 81.62125429830205 101.71605673926581 47.21658815169013 C 0.0 **** -0.24
3052 H 80.54078425515806 101.58018217853868 47.16363228747008 H 0.0 **** 0.06
3053 H 81.86596382555007 102.75946993513969 47.020152883034314 H 0.0 **** 0.06
3054 H 82.1036166372722 101.08211953050147 46.47172443596742 H 0.0 **** 0.06
3055 H 81.97249044979156 101.44014954828384 48.210940755614615 H 0.0 **** 0.06
3056 C 91.48425922413495 25.426377541817214 24.621065110306205 C 0.0 **** -0.24
3057 H 92.01190410900564 24.830185108329783 25.36570272412563 H 0.0 **** 0.06
3058 H 90.49707535183775 25.691226544937194 25.000580252305163 H 0.0 **** 0.06
3059 H 91.37749342008696 24.84839246865067 23.703320588137213 H 0.0 **** 0.06
3060 H 92.05052418005049 26.33435875929672 24.415085041942582 H 0.0 **** 0.06
3061 C 19.03913306240468 47.02129241955138 33.593044899407715 C 0.0 **** -0.24
3062 H 20.035519670610647 46.87773529562136 34.010132122998925 H 0.0 **** 0.06
3063 H 19.00375916127225 46.6050310473826 32.58630965040621 H 0.0 **** 0.06
3064 H 18.81198020976228 48.08723917995176 33.554072464416834 H 0.0 **** 0.06
3065 H 18.306230240598776 46.51616866013288 34.22139122372954 H 0.0 **** 0.06
3066 C 86.23340957231801 3.855744108875257 27.36322098126634 C 0.0 **** -0.24
3067 H 86.10967905719235 2.842535557051363 27.74663711881278 H 0.0 **** 0.06
3068 H 86.02467258006533 4.572071258666327 28.15781835654672 H 0.0 **** 0.06
3069 H 85.54248612599105 4.017426010132581 26.536296906550646 H 0.0 **** 0.06
3070 H 87.25679213542941 3.988965347734407 27.013173963238327 H 0.0 **** 0.06
3071 C 5.151562753623239 1.1390396180028404 76.90071749446082 C 0.0 **** -0.24
3072 H 5.888459121946681 1.3676911661595312 76.13077339287256 H 0.0 **** 0.06
3073 H 4.185979508943916 0.9460817748753527 76.43268651232512 H 0.0 **** 0.06
3074 H 5.063854608822481 1.9848865598106613 77.58183267707648 H 0.0 **** 0.06
3075 H 5.469186742842197 0.25676610417504264 77.45585903189561 H 0.0 **** 0.06
3076 C 50.179005611657324 43.475569615984426 64.48981015253206 C 0.0 **** -0.24
3077 H 49.83546697724494 43.87746453697616 63.53619680116313 H 0.0 **** 0.06
3078 H 49.32516489254317 43.32972775613945 65.15188712028376 H 0.0 **** 0.06
3079 H 50.878916315874605 44.17430279722214 64.94782723158899 H 0.0 **** 0.06
3080 H 50.67665913578914 42.52035293924999 64.32244594499919 H 0.0 **** 0.06
3081 C 41.26847542486094 30.925110938044668 88.57410690081701 C 0.0 **** -0.24
3082 H 40.59414799446982 31.769914467940794 88.71387532552468 H 0.0 **** 0.06
3083 H 40.68535024742808 30.022791096355945 88.39044244882649 H 0.0 **** 0.06
3084 H 41.87397232348569 30.791528186314565 89.47047616310931 H 0.0 **** 0.06
3085 H 41.91882690890034 31.118056044682874 87.72149632411441 H 0.0 **** 0.06
3086 C 88.15681095923584 58.72505402679917 45.421858368132234 C 0.0 **** -0.24
3087 H 88.45928429124405 59.72211914328 45.74394811119717 H 0.0 **** 0.06
3088 H 87.10475280367227 58.570181470987734 45.65974027932853 H 0.0 **** 0.06
3089 H 88.76096337192453 57.978487137445796 45.93760778507405 H 0.0 **** 0.06
3090 H 88.30466625002953 58.63119686258602 44.346186793592636 H 0.0 **** 0.06
3091 C 10.181679506833802 102.64731968154632 22.25519846303205 C 0.0 **** -0.24
3092 H 10.639368380060034 101.72098366085429 22.602406153990152 H 0.0 **** 0.06
3093 H 9.229678162667085 102.79521830074064 22.767307097848228 H 0.0 **** 0.06
3094 H 10.011253030174146 102.58780073391618 21.18015752087129 H 0.0 **** 0.06
3095 H 10.845295202274485 103.48434958119434 22.472892920080998 H 0.0 **** 0.06
3096 C 88.77505756178981 44.90860925737496 96.57600116670898 C 0.0 **** -0.24
3097 H 88.66197965637824 45.059492146836845 95.50220999975977 H 0.0 **** 0.06
3098 H 89.48439262227366 45.63564520997846 96.97184105579036 H 0.0 **** 0.06
3099 H 89.14472805036114 43.89979246661724 96.7641266463715 H 0.0 **** 0.06
3100 H 87.80979450290846 45.03882058574405 97.0638053047393 H 0.0 **** 0.06
3101 C 16.082937674086907 63.061227765121885 54.59378043308074 C 0.0 **** -0.24
3102 H 15.254310179246545 62.52181205247484 54.13538338528094 H 0.0 **** 0.06
3103 H 16.461330261113076 62.490278976257 55.44218557043451 H 0.0 **** 0.06
3104 H 15.737482961217722 64.03593652319273 54.9365931092777 H 0.0 **** 0.06
3105 H 16.878882478323376 63.19446119369081 53.861219567894715 H 0.0 **** 0.06
3106 C 78.34017786639858 8.150240368990865 83.59615107137887 C 0.0 **** -0.24
3107 H 79.28029684617972 8.542266671857021 83.98378669107817 H 0.0 **** 0.06
3108 H 77.53198886106262 8.39779452445913 84.28592224887777 H 0.0 **** 0.06
3109 H 78.41336477595395 7.067648281730158 83.49423571509479 H 0.0 **** 0.06
3110 H 78.13517478136576 8.59421655316146 82.62209379263126 H 0.0 **** 0.06
3111 C 17.357546346616136 48.85147422294568 48.93864500426597 C 0.0 **** -0.24
3112 H 16.665969535910474 48.46428481194221 48.19158710912434 H 0.0 **** 0.06
3113 H 18.327521262021346 48.366252875177736 48.821151573784576 H 0.0 **** 0.06
3114 H 16.967688324469158 48.648367026724884 49.936017498206546 H 0.0 **** 0.06
3115 H 17.47139941044281 49.92737211624507 48.80546498559162 H 0.0 **** 0.06
3116 C 80.93518785446501 19.73430113133503 19.64967782567814 C 0.0 **** -0.24
3117 H 81.31797714665507 20.65378243652708 19.205333077847 H 0.0 **** 0.06
3118 H 80.77287107603368 19.88623247231226 20.716300435978695 H 0.0 **** 0.06
3119 H 81.65844445713772 18.931758035968386 19.501798762325308 H 0.0 **** 0.06
3120 H 79.99241319342609 19.466322257512445 19.172070247666795 H 0.0 **** 0.06
3121 C 30.66670459523604 93.81717259893122 9.309105767664363 C 0.0 **** -0.24
3122 H 30.7509143872054 94.60544419637057 10.057234974121855 H 0.0 **** 0.06
3123 H 29.84928110289016 93.14744479924593 9.577447423697024 H 0.0 **** 0.06
3124 H 31.599751362979887 93.25432399356691 9.269181792457303 H 0.0 **** 0.06
3125 H 30.46898295944895 94.26088640627177 8.333651057862753 H 0.0 **** 0.06
3126 C 20.47448605117893 59.56187000114133 90.41265637982846 C 0.0 **** -0.24
3127 H 19.425896947934973 59.81697253747113 90.5659152976339 H 0.0 **** 0.06
3128 H 21.077832502551985 60.01749219816661 91.19814998529725 H 0.0 **** 0.06
3129 H 20.80069512296859 59.93460595088785 89.44141218490333 H 0.0 **** 0.06
3130 H 20.593272808297968 58.47937465275709 90.44506288483802 H 0.0 **** 0.06
3131 C 75.83038814613592 47.04813044712614 25.585643647225794 C 0.0 **** -0.24
3132 H 75.4988776276581 48.08244746539103 25.67928555293436 H 0.0 **** 0.06
3133 H 75.10885076508814 46.39035993181358 26.072367963251054 H 0.0 **** 0.06
3134 H 76.80443235091356 46.93447316013777 26.060883154510794 H 0.0 **** 0.06
3135 H 75.90711076620525 46.78589471910743 24.530646135359664 H 0.0 **** 0.06
3136 C 95.55966310415899 82.21407627476694 105.89378077769297 C 0.0 **** -0.24
3137 H 95.30273588729258 81.93382857993078 104.87287466935047 H 0.0 **** 0.06
3138 H 96.39142742284537 82.91968171801258 105.87794191710744 H 0.0 **** 0.06
3139 H 95.84928461065469 81.32439531636243 106.45293270759278 H 0.0 **** 0.06
3140 H 94.69721977834993 82.67978900437808 106.37128355076506 H 0.0 **** 0.06
3141 C 80.77709437833184 20.841481679814933 44.83205359964688 C 0.0 **** -0.24
3142 H 81.17101230423694 19.939064129609505 44.36453254118811 H 0.0 **** 0.06
3143 H 81.50654942305516 21.646052004941396 44.74008823986293 H 0.0 **** 0.06
3144 H 80.58113394157905 20.647936240052275 45.887363716827736 H 0.0 **** 0.06
3145 H 79.85026057221751 21.13108754617133 44.33744343092724 H 0.0 **** 0.06
3146 C 95.66336568919124 38.38040999782555 5.92199773988726 C 0.0 **** -0.24
3147 H 96.3693972489443 37.55250952549578 5.992183102462107 H 0.0 **** 0.06
3148 H 95.53501946711958 38.66114710389766 4.876475073613179 H 0.0 **** 0.06
3149 H 96.04473169390329 39.23191540205991 6.484166888925614 H 0.0 **** 0.06
3150 H 94.70195106812184 38.07351895336424 6.336124058660886 H 0.0 **** 0.06
3151 C 58.14684810680262 82.66236149011507 51.925661225525374 C 0.0 **** -0.24
3152 H 58.22301323436466 81.91888394588449 51.132962248659354 H 0.0 **** 0.06
3153 H 57.09708903280375 82.90007705183427 52.101006480160954 H 0.0 **** 0.06
3154 H 58.67956329838546 83.56610284264124 51.62988462781129 H 0.0 **** 0.06
3155 H 58.5870409232308 82.2635015739547 52.83966000333158 H 0.0 **** 0.06
3156 C 15.87267874594447 35.00461929956981 62.18180191054367 C 0.0 **** -0.24
3157 H 15.40778132806949 34.16730961793368 62.70372016548424 H 0.0 **** 0.06
3158 H 15.109689970119419 35.738284753153806 61.91943786885818 H 0.0 **** 0.06
3159 H 16.356124310554293 34.64254022007378 61.27410434930604 H 0.0 **** 0.06
3160 H 16.61579047668178 35.46765405260098 62.82986703954222 H 0.0 **** 0.06
3161 C 84.14562721411704 74.58433566616552 32.32848057384402 C 0.0 **** -0.24
3162 H 83.119572573173 74.30826520223289 32.57270527604013 H 0.0 **** 0.06
3163 H 84.14242524008569 75.47869148906962 31.70613816425331 H 0.0 **** 0.06
3164 H 84.62209110829167 73.76672515262663 31.786380055776654 H 0.0 **** 0.06
3165 H 84.69720994485834 74.78106896681612 33.247794016589815 H 0.0 **** 0.06
3166 C 6.37108588271974 30.281339826418446 4.081589925461439 C 0.0 **** -0.24
3167 H 6.600434966659606 29.38776953502827 4.662157613565661 H 0.0 **** 0.06
3168 H 5.412632908244689 30.15205963316191 3.578024366238342 H 0.0 **** 0.06
3169 H 7.153019260445717 30.441392455067557 3.3388072610629917 H 0.0 **** 0.06
3170 H 6.319851699240758 31.14351980898715 4.745930506558585 H 0.0 **** 0.06
3171 C 69.02952278718388 18.006875425736894 60.573110956847984 C 0.0 **** -0.24
3172 H 69.20519563279485 18.7270161275126 59.77364791745475 H 0.0 **** 0.06
3173 H 69.98458505840472 17.65227199373402 60.95965090879383 H 0.0 **** 0.06
3174 H 68.45876895060023 17.164041151549924 60.18212221921456 H 0.0 **** 0.06
3175 H 68.46781316792767 18.485403561251502 61.37515261378897 H 0.0 **** 0.06
3176 C 101.52002359212509 40.743396392415264 31.589608961396777 C 0.0 **** -0.24
3177 H 102.43079552703466 40.350073141669355 31.138803039164443 H 0.0 **** 0.06
3178 H 101.23433809805317 40.11955062992732 32.43593982051023 H 0.0 **** 0.06
3179 H 100.7191353887398 40.74321012585318 30.849727354300583 H 0.0 **** 0.06
3180 H 101.69702622302066 41.763753928504826 31.932370335093054 H 0.0 **** 0.06
3181 C 49.25589700212902 27.377738094902384 87.08790903207901 C 0.0 **** -0.24
3182 H 49.66838981479725 27.682015518009678 86.1260495685246 H 0.0 **** 0.06
3183 H 49.71615323629567 26.439562233086292 87.39995553091548 H 0.0 **** 0.06
3184 H 48.178982424994274 27.240550769735194 86.9941684106256 H 0.0 **** 0.06
3185 H 49.46019804325226 28.149219200486016 87.83055410969298 H 0.0 **** 0.06
3186 C 26.08419390737322 96.85866684562683 64.06846453214467 C 0.0 **** -0.24
3187 H 25.804209958147652 97.17736396590004 63.06390000594007 H 0.0 **** 0.06
3188 H 27.09790771265193 97.19424691247019 64.28659988840278 H 0.0 **** 0.06
3189 H 26.040189325384418 95.77127596074519 64.12843419585604 H 0.0 **** 0.06
3190 H 25.393231619703073 97.29054545853114 64.79161571442418 H 0.0 **** 0.06
3191 C 52.91026595790033 63.88560197771446 81.48999317183586 C 0.0 **** -0.24
3192 H 53.71130370280749 63.318711610265154 81.01511048113423 H 0.0 **** 0.06
3193 H 52.27256515090577 63.20704575973022 82.05654312198317 H 0.0 **** 0.06
3194 H 52.3178559768141 64.38757620044015 80.72432219099636 H 0.0 **** 0.06
3195 H 53.3395770564091 64.6283831310642 82.16188365175708 H 0.0 **** 0.06
3196 C 44.3403696053046 23.87547770403103 100.83022673275602 C 0.0 **** -0.24
3197 H 43.61467007344331 24.102419260880705 100.04912979030347 H 0.0 **** 0.06
3198 H 44.202679957151986 22.847783161879324 101.16748958426201 H 0.0 **** 0.06
3199 H 44.195446537728515 24.55573543205305 101.66980189910917 H 0.0 **** 0.06
3200 H 45.34889078975016 23.995791948926257 100.43587262238252 H 0.0 **** 0.06
3201 C 22.761874995540023 58.093580078809765 78.03204302280017 C 0.0 **** -0.24
3202 H 22.859162216101296 58.17832462212988 79.11445065085837 H 0.0 **** 0.06
3203 H 22.038550945288264 57.3139627528397 77.7918038110115 H 0.0 **** 0.06
3204 H 23.729669619749185 57.83859958320417 77.59913857259596 H 0.0 **** 0.06
3205 H 22.420925385679904 59.04457034190372 77.62254625825909 H 0.0 **** 0.06
3206 C 88.28788914953537 33.480485783415304 19.99886575978803 C 0.0 **** -0.24
3207 H 88.01398992558217 32.616663014852634 20.605105131738398 H 0.0 **** 0.06
3208 H 87.46736431959042 33.72241108881329 19.322108835208457 H 0.0 **** 0.06
3209 H 89.18109922696402 33.24945303183003 19.41961428636165 H 0.0 **** 0.06
3210 H 88.4862228231384 34.3318877023348 20.65017386539895 H 0.0 **** 0.06
3211 C 102.52188223722436 72.17884466676843 33.66434295513449 C 0.0 **** -0.24
3212 H 103.21592450540912 71.35105251617162 33.51625775093245 H 0.0 **** 0.06
3213 H 102.13184686363189 72.14821068100342 34.68196503498203 H 0.0 **** 0.06
3214 H 101.69759503108355 72.09088482087526 32.956084946063555 H 0.0 **** 0.06
3215 H 103.04175381573093 73.12290462124615 33.50241385139765 H 0.0 **** 0.06
3216 C 4.732779397060517 97.41402506836016 41.80942787617573 C 0.0 **** -0.24
3217 H 3.7023368039759665 97.7650431693703 41.743783995047266 H 0.0 **** 0.06
3218 H 5.045965237146923 97.02492312419486 40.840447469776905 H 0.0 **** 0.06
3219 H 4.801315541508629 96.62536207530582 42.55771867496705 H 0.0 **** 0.06
3220 H 5.380679744749935 98.2433535669802 42.09447194420795 H 0.0 **** 0.06
3221 C 101.31364373729986 10.026641865584153 10.588354411953663 C 0.0 **** -0.24
3222 H 101.49676993611246 11.054440000996664 10.274181658951411 H 0.0 **** 0.06
3223 H 102.25042901695952 9.470036577382515 10.576002335005867 H 0.0 **** 0.06
3224 H 100.6028016472664 9.55969244804649 9.905830770435413 H 0.0 **** 0.06
3225 H 100.90272207971907 10.024817568677037 11.59824985223303 H 0.0 **** 0.06
3226 C 53.17051421818735 18.273330548302255 19.592760276232298 C 0.0 **** -0.24
3227 H 52.6464246429735 17.93190010746379 20.485423750358336 H 0.0 **** 0.06
3228 H 54.132471792145 17.7653164468921 19.51969156112932 H 0.0 **** 0.06
3229 H 53.33055175176338 19.34944094894915 19.655226861440383 H 0.0 **** 0.06
3230 H 52.57104832187093 18.045439410286292 18.71044567670117 H 0.0 **** 0.06
3231 C 45.21716648015661 12.53169922832948 2.7439260880910155 C 0.0 **** -0.24
3232 H 44.47328205432933 12.205290691804874 2.0168028804087754 H 0.0 **** 0.06
3233 H 45.79584300628699 11.671735019037829 3.0811363262508564 H 0.0 **** 0.06
3234 H 44.71546371929327 12.989908881721266 3.596540293956295 H 0.0 **** 0.06
3235 H 45.88307248634766 13.259535360562165 2.279852297641483 H 0.0 **** 0.06
3236 C 60.67135285293418 5.905865476775173 106.23543498381161 C 0.0 **** -0.24
3237 H 59.92359823038967 5.406318514780134 105.61994124905955 H 0.0 **** 0.06
3238 H 60.468301110754965 6.976376174700883 106.25569630919567 H 0.0 **** 0.06
3239 H 61.66263549426725 5.731811596332848 105.81487849854399 H 0.0 **** 0.06
3240 H 60.63190464429569 5.507994856307796 107.24980254418223 H 0.0 **** 0.06
3241 C 44.008423961349905 96.23799303873186 33.777340555032865 C 0.0 **** -0.24
3242 H 44.465785555013554 96.52209300733821 32.829249146744246 H 0.0 **** 0.06
3243 H 44.40328213600168 96.86962333269761 34.573726106661184 H 0.0 **** 0.06
3244 H 44.23756470785054 95.19521466301157 33.993311415436125 H 0.0 **** 0.06
3245 H 42.92791200405068 96.3673370506728 33.713170814939005 H 0.0 **** 0.06
3246 C 75.41512280731416 79.9681883831716 29.2077277706739 C 0.0 **** -0.24
3247 H 76.32794022182071 79.44644259256484 29.49595584824155 H 0.0 **** 0.06
3248 H 75.27036262436934 79.88074612705066 28.13187743057256 H 0.0 **** 0.06
3249 H 75.49908765462072 81.02091865318295 29.479574493006055 H 0.0 **** 0.06
3250 H 74.56518824122452 79.52532441725572 29.72726936082927 H 0.0 **** 0.06
3251 C 36.249619499475465 61.070835667867044 74.83712214342268 C 0.0 **** -0.24
3252 H 36.72844450634266 61.470810167296506 73.94321402168669 H 0.0 **** 0.06
3253 H 36.06911410918143 61.88056048402353 75.54475077032174 H 0.0 **** 0.06
3254 H 36.90124854638773 60.32618587936492 75.29500314991947 H 0.0 **** 0.06
3255 H 35.30177766073233 60.60697300199088 74.56512957388071 H 0.0 **** 0.06
3256 C 22.944834412922575 30.35090486479517 97.017944475248 C 0.0 **** -0.24
3257 H 22.174321057909594 29.580518061935734 97.0280446495675 H 0.0 **** 0.06
3258 H 23.81338045476049 29.987395375085967 96.46876933791113 H 0.0 **** 0.06
3259 H 23.235238551176323 30.58716279740014 98.04238744761685 H 0.0 **** 0.06
3260 H 22.5568962314823 31.247368335045167 96.5346672229293 H 0.0 **** 0.06
3261 C 89.5815787439233 21.667922728076064 39.06888266665703 C 0.0 **** -0.24
3262 H 89.06205612126827 22.402393646865193 39.684139045383546 H 0.0 **** 0.06
3263 H 90.65342725531936 21.86825019272996 39.09140925178329 H 0.0 **** 0.06
3264 H 89.22121019711246 21.734690669209414 38.04230911196612 H 0.0 **** 0.06
3265 H 89.38968573751238 20.667662480095515 39.456537404067205 H 0.0 **** 0.06
3266 C 50.22418706296395 63.16426522246584 84.03975195903512 C 0.0 **** -0.24
3267 H 50.271401596835915 62.81832170699968 83.00724695992378 H 0.0 **** 0.06
3268 H 49.2316323576386 63.567639812720785 84.24176391648199 H 0.0 **** 0.06
3269 H 50.97153454362285 63.94303113112332 84.19558252250246 H 0.0 **** 0.06
3270 H 50.422193291542555 62.33030036565299 84.71240998173226 H 0.0 **** 0.06
3271 C 103.81140727993129 84.72769825818187 3.367742348968818 C 0.0 **** -0.24
3272 H 103.81659876712499 84.75763312598218 4.457243451188788 H 0.0 **** 0.06
3273 H 104.6555941285705 84.13478292021375 3.016149316129713 H 0.0 **** 0.06
3274 H 103.89060413054408 85.74218835054464 2.9762484824771036 H 0.0 **** 0.06
3275 H 102.88092793128081 84.27657092316319 3.021805856248193 H 0.0 **** 0.06
3276 C 21.27465912492636 64.10377342145729 0.7124381599281691 C 0.0 **** -0.24
3277 H 20.720771130227547 64.81872366190707 1.3209559958171724 H 0.0 **** 0.06
3278 H 20.894925284489617 64.12391705946584 -0.30877098735551556 H 0.0 **** 0.06
3279 H 21.152103335607706 63.102508562290495 1.1274665272992621 H 0.0 **** 0.06
3280 H 22.331811355631075 64.36987261442614 0.7127554131952678 H 0.0 **** 0.06
3281 C 101.19840322354891 96.1752575359177 69.98847153360707 C 0.0 **** -0.24
3282 H 100.50371107174796 96.23057901184305 69.15056757781277 H 0.0 **** 0.06
3283 H 100.80094708340484 96.74410846287253 70.82832026514171 H 0.0 **** 0.06
3284 H 102.16162436560919 96.58992948927255 69.69023012606468 H 0.0 **** 0.06
3285 H 101.32849700592514 95.1332056795953 70.28323468684977 H 0.0 **** 0.06
3286 C 43.11244853088937 101.31610552672534 17.91821636504153 C 0.0 **** -0.24
3287 H 43.00113781902314 101.67539455483325 16.895413840599474 H 0.0 **** 0.06
3288 H 42.4692715425719 100.4492449087327 18.070636014694855 H 0.0 **** 0.06
3289 H 42.82819363539994 102.10651157567528 18.612899847357596 H 0.0 **** 0.06
3290 H 44.150156680018256 101.0346601148384 18.093940383254846 H 0.0 **** 0.06
3291 C 101.76806055785022 46.66541336654444 104.09365363110643 C 0.0 **** -0.24
3292 H 101.63895663042047 45.91469934701911 104.87478386995596 H 0.0 **** 0.06
3293 H 101.73236432851945 46.18113734674898 103.11716283251491 H 0.0 **** 0.06
3294 H 102.73162295690986 47.158702027412915 104.22045858582854 H 0.0 **** 0.06
3295 H 100.96969374414624 47.403477232017565 104.16299203892761 H 0.0 **** 0.06
3296 C 94.50551326252076 91.1384835751073 17.476821824942235 C 0.0 **** -0.24
3297 H 93.6295737467552 90.49227927035815 17.521032782303635 H 0.0 **** 0.06
3298 H 94.89376232313737 91.15449958741348 16.45872809929375 H 0.0 **** 0.06
3299 H 95.27226109305766 90.75894269307364 18.152344732688448 H 0.0 **** 0.06
3300 H 94.22683157215349 92.1489277361315 17.77577134729286 H 0.0 **** 0.06
3301 C 94.38343448214526 52.51299692863268 86.9130523806511 C 0.0 **** -0.24
3302 H 95.38249360125138 52.67116991712834 87.31813737100674 H 0.0 **** 0.06
3303 H 94.36971552793297 51.59276359788451 86.32944369996329 H 0.0 **** 0.06
3304 H 94.11345571224825 53.353984309038026 86.27380639635334 H 0.0 **** 0.06
3305 H 93.66809967683528 52.435663226667415 87.73239074996832 H 0.0 **** 0.06
3306 C 61.87039204185375 0.5532653155787841 91.99910871061473 C 0.0 **** -0.24
3307 H 61.6330648135676 -0.33973965561790465 92.57807559742679 H 0.0 **** 0.06
3308 H 62.924726602581416 0.7977618914066511 92.12475791916003 H 0.0 **** 0.06
3309 H 61.259170636613646 1.384908804551003 92.34833953117986 H 0.0 **** 0.06
3310 H 61.66308201092082 0.3685027400462104 90.94509255927458 H 0.0 **** 0.06
3311 C 98.65400144187794 6.470948252282369 87.20222777735952 C 0.0 **** -0.24
3312 H 97.79013087806577 5.997047589640578 86.7354874365475 H 0.0 **** 0.06
3313 H 98.82250023685033 7.447379677170627 86.74698874167916 H 0.0 **** 0.06
3314 H 99.53404005446268 5.844084508939993 87.0552528219581 H 0.0 **** 0.06
3315 H 98.46846363746131 6.593005394039883 88.26871988761651 H 0.0 **** 0.06
3316 C 8.554245826168838 78.12571256298993 56.635558344666855 C 0.0 **** -0.24
3317 H 8.553839699862735 77.60131550070003 55.68048702811473 H 0.0 **** 0.06
3318 H 9.540628568358073 78.55213078104849 56.81532833759148 H 0.0 **** 0.06
3319 H 8.308847527229275 77.42595308827525 57.43430990166158 H 0.0 **** 0.06
3320 H 7.812062132401891 78.92443607195064 56.61090295731365 H 0.0 **** 0.06
3321 C 81.4211662314512 32.92316439613225 59.92436869583895 C 0.0 **** -0.24
3322 H 81.48338096440494 31.8704188998519 59.64947428648739 H 0.0 **** 0.06
3323 H 81.19682609844386 33.0094280546144 60.98766912652124 H 0.0 **** 0.06
3324 H 80.6319580343519 33.40353373628554 59.3460855282261 H 0.0 **** 0.06
3325 H 82.37397623316252 33.41060947646298 59.71322374466655 H 0.0 **** 0.06
3326 C 15.027337776083527 57.85496200623888 5.454247282884495 C 0.0 **** -0.24
3327 H 14.133074610432459 57.23862211196831 5.35934072385399 H 0.0 **** 0.06
3328 H 15.570943926217524 57.570270890335195 6.356016158430833 H 0.0 **** 0.06
3329 H 14.740065365040891 58.904642379950815 5.520159418488362 H 0.0 **** 0.06
3330 H 15.665062909773383 57.70613153934181 4.582434866129958 H 0.0 **** 0.06
3331 C 48.304660510736035 40.30777822599898 99.92396695989686 C 0.0 **** -0.24
3332 H 47.23821578639418 40.094627326753574 99.854865410095 H 0.0 **** 0.06
3333 H 48.85301791956381 39.63986053540876 99.25988126886921 H 0.0 **** 0.06
3334 H 48.639566612480735 40.15569309871836 100.95021680362856 H 0.0 **** 0.06
3335 H 48.48791887883776 41.34230096644462 99.63125064362167 H 0.0 **** 0.06
3336 C 72.71985325153656 7.676946540441492 31.986022340879316 C 0.0 **** -0.24
3337 H 71.7776563917617 7.623890927542533 31.440437432992667 H 0.0 **** 0.06
3338 H 72.96711768621299 8.71979220533865 32.181912302025836 H 0.0 **** 0.06
3339 H 73.50992755831345 7.221007799100192 31.388963564023868 H 0.0 **** 0.06
3340 H 72.6227824115332 7.142058184712809 32.930725681161334 H 0.0 **** 0.06
3341 C 92.00369670426042 71.89511273167318 54.86337805133843 C 0.0 **** -0.24
3342 H 91.68256101177172 72.6797252961025 54.17778142826455 H 0.0 **** 0.06
3343 H 92.72714082989091 71.2503502637073 54.36338834218415 H 0.0 **** 0.06
3344 H 91.1395348981664 71.30402707508281 55.16814496216162 H 0.0 **** 0.06
3345 H 92.46379355388126 72.34579564424939 55.74162654548783 H 0.0 **** 0.06
3346 C 58.81004887111365 8.308695956650297 78.48633601511 C 0.0 **** -0.24
3347 H 58.663545733203506 7.946608776487267 77.4689858357865 H 0.0 **** 0.06
3348 H 58.33031052065607 7.625525439703267 79.18755344856311 H 0.0 **** 0.06
3349 H 58.368874545422415 9.300569842566176 78.58488102356262 H 0.0 **** 0.06
3350 H 59.876654184976445 8.36199918665136 78.70239511449114 H 0.0 **** 0.06
3351 C 30.70183527297553 25.57669087288437 10.317437655486469 C 0.0 **** -0.24
3352 H 30.099572849458525 24.978757735509987 11.00155800395352 H 0.0 **** 0.06
3353 H 31.199321859588537 26.371760633707026 10.873156914609451 H 0.0 **** 0.06
3354 H 30.058646051001688 26.01347817084533 9.553887290483113 H 0.0 **** 0.06
3355 H 31.449950721205084 24.942494687859323 9.842528031565196 H 0.0 **** 0.06
3356 C 83.78680215133954 4.471698202595178 6.950704255106984 C 0.0 **** -0.24
3357 H 83.33698548992538 4.4539997688286235 7.9430269895534025 H 0.0 **** 0.06
3358 H 83.52786413269064 3.556761532765478 6.417964455717595 H 0.0 **** 0.06
3359 H 84.86993156477732 4.544677879357494 7.04395824083673 H 0.0 **** 0.06
3360 H 83.41165783233814 5.332567908125981 6.396901206298423 H 0.0 **** 0.06
3361 C 7.307236813719413 68.6737181590176 18.204182166652828 C 0.0 **** -0.24
3362 H 6.627759060394254 68.96006750558564 17.401241474315725 H 0.0 **** 0.06
3363 H 7.065229297129122 69.2398256999603 19.103383644927987 H 0.0 **** 0.06
3364 H 8.332772062140378 68.88653812037614 17.904779830345376 H 0.0 **** 0.06
3365 H 7.201068668719813 67.60759305642557 18.40491657289398 H 0.0 **** 0.06
3366 C 53.088130778904684 37.58706996774174 80.97233444389349 C 0.0 **** -0.24
3367 H 53.686573286381616 37.32817478881907 80.09898196651955 H 0.0 **** 0.06
3368 H 53.46543658410391 37.04982188292513 81.8432050383172 H 0.0 **** 0.06
3369 H 52.04951380689059 37.309916274418356 80.79576361058201 H 0.0 **** 0.06
3370 H 53.152605512112046 38.66100914616834 81.15129651475189 H 0.0 **** 0.06
3371 C 48.301534360507056 70.01429827757232 75.94595550216694 C 0.0 **** -0.24
3372 H 47.69746863181666 70.9214098828254 75.94282143408728 H 0.0 **** 0.06
3373 H 47.65345715781595 69.14612526374526 75.82427031559246 H 0.0 **** 0.06
3374 H 48.837846323518804 69.93732666681944 76.89161164673612 H 0.0 **** 0.06
3375 H 49.01755418938137 70.05102761132974 75.12460399808415 H 0.0 **** 0.06
3376 C 61.07077560806506 41.256647168586824 4.786826759429914 C 0.0 **** -0.24
3377 H 61.83646137168979 41.90034471905631 5.219919689680694 H 0.0 **** 0.06
3378 H 60.08479414527101 41.63000766601084 5.0605659181907185 H 0.0 **** 0.06
3379 H 61.19353051058434 40.241475090892266 5.164934703218421 H 0.0 **** 0.06
3380 H 61.170416786476935 41.254674130909336 3.701124462928931 H 0.0 **** 0.06
3381 C 13.991524405868347 30.235935217199874 102.23113434578163 C 0.0 **** -0.24
3382 H 13.09795227792523 30.47072457335056 101.65289692835664 H 0.0 **** 0.06
3383 H 14.838134769929667 30.79780569931124 101.83546124635622 H 0.0 **** 0.06
3384 H 14.200254687950803 29.16756537136802 102.16055577373743 H 0.0 **** 0.06
3385 H 13.831143094397689 30.506873633225055 103.27404846349692 H 0.0 **** 0.06
3386 C 79.69169999368555 78.08823676354149 73.77340556402068 C 0.0 **** -0.24
3387 H 79.29486668102663 77.45245095600154 74.56540333906888 H 0.0 **** 0.06
3388 H 78.99386678605305 78.90232847415359 73.57686238936263 H 0.0 **** 0.06
3389 H 79.82576560084217 77.49761702994195 72.86614014809005 H 0.0 **** 0.06
3390 H 80.65183209790132 78.49840164954873 74.08481328417878 H 0.0 **** 0.06
3391 C 95.40771124571143 13.779963547258546 90.01824342466139 C 0.0 **** -0.24
3392 H 94.85942920511877 12.877605485372484 90.29036192209142 H 0.0 **** 0.06
3393 H 96.45647911921321 13.664377821026221 90.29231386788649 H 0.0 **** 0.06
3394 H 94.98480885141134 14.634027848615318 90.5469242605762 H 0.0 **** 0.06
3395 H 95.32776301211197 13.942388387003433 88.94283317136222 H 0.0 **** 0.06
3396 C 72.17584839192085 27.19485391096113 62.94432745179091 C 0.0 **** -0.24
3397 H 72.59441747318027 26.194879733010083 63.05081313418441 H 0.0 **** 0.06
3398 H 72.93924094910568 27.93570508380525 63.18193016586025 H 0.0 **** 0.06
3399 H 71.33205891761492 27.310815475081952 63.62509024536115 H 0.0 **** 0.06
3400 H 71.83678055959865 27.33861502286708 61.91856069341628 H 0.0 **** 0.06
3401 C 16.58533203054489 66.20129718540858 87.26149946387699 C 0.0 **** -0.24
3402 H 17.39190964107769 66.19282028668141 87.99518089722824 H 0.0 **** 0.06
3403 H 15.921535914152969 65.35629339778103 87.44207627149366 H 0.0 **** 0.06
3404 H 17.006670163162184 66.12618459578727 86.2591941364078 H 0.0 **** 0.06
3405 H 16.023366203212888 67.1310492263878 87.35128402732335 H 0.0 **** 0.06
3406 C 81.44171983623528 25.366068494082754 50.74396312496593 C 0.0 **** -0.24
3407 H 81.16094077845389 26.375285691526102 51.04412882350906 H 0.0 **** 0.06
3408 H 80.7504215263898 25.009986008962613 49.97952302802954 H 0.0 **** 0.06
3409 H 81.40098159987531 24.70494780620544 51.609070919200875 H 0.0 **** 0.06
3410 H 82.45481161911184 25.376515643319294 50.34143657710519 H 0.0 **** 0.06
3411 C 56.70771021137629 49.19314095648625 50.316698190740794 C 0.0 **** -0.24
3412 H 56.841497745833294 50.12219903737495 50.87136539989581 H 0.0 **** 0.06
3413 H 57.58673660625534 48.561224546072495 50.44970957401409 H 0.0 **** 0.06
3414 H 56.57900927094107 49.41790378744541 49.257191930438466 H 0.0 **** 0.06
3415 H 55.82531257613074 48.67195787993149 50.68728596417543 H 0.0 **** 0.06
3416 C 99.24890486194977 79.56884471246207 56.43128645798202 C 0.0 **** -0.24
3417 H 99.31358843266345 79.40116679625515 57.50573366304732 H 0.0 **** 0.06
3418 H 99.90407585698136 78.86764469592578 55.9136241662442 H 0.0 **** 0.06
3419 H 99.55687452293795 80.5894136405397 56.20336000070357 H 0.0 **** 0.06
3420 H 98.22089715209037 79.41753973623321 56.10074947241659 H 0.0 **** 0.06
3421 C 14.174606313913728 85.96368821476584 13.69137684034267 C 0.0 **** -0.24
3422 H 13.130955243529115 86.20942204831326 13.887346299014581 H 0.0 **** 0.06
3423 H 14.795466296277482 86.34559466197149 14.502445335270522 H 0.0 **** 0.06
3424 H 14.484285412591419 86.41786933481475 12.751000852245369 H 0.0 **** 0.06
3425 H 14.286957499530828 84.88083948395887 13.626804383643503 H 0.0 **** 0.06
3426 C 44.655157854571314 38.588118625111484 11.028619533593144 C 0.0 **** -0.24
3427 H 43.861281915924565 38.37064309250848 11.742466189676065 H 0.0 **** 0.06
3428 H 44.23526760715902 39.101270844376224 10.162872032543476 H 0.0 **** 0.06
3429 H 45.121461339451 37.657292689747266 10.708493363278478 H 0.0 **** 0.06
3430 H 45.40332051911673 39.225369210093575 11.500954229498575 H 0.0 **** 0.06
3431 C 80.15264543720942 2.894983455231454 100.65883475830863 C 0.0 **** -0.24
3432 H 80.43620075871777 2.631354989002702 101.67761938027797 H 0.0 **** 0.06
3433 H 79.45074412114549 3.728913803819239 100.68199611212302 H 0.0 **** 0.06
3434 H 79.68153430056715 2.036643404384847 100.17959017193152 H 0.0 **** 0.06
3435 H 81.04115346227111 3.1827336867364977 100.09626118081252 H 0.0 **** 0.06
3436 C 65.6281964391934 61.22727767497878 24.961762611476104 C 0.0 **** -0.24
3437 H 65.3369369224693 62.02502214628663 24.277315803427868 H 0.0 **** 0.06
3438 H 65.67892309329909 61.62098715091662 25.97709082411916 H 0.0 **** 0.06
3439 H 66.60429994613114 60.83916737495764 24.672480742905037 H 0.0 **** 0.06
3440 H 64.89129518223066 60.42528735145834 24.918614443399306 H 0.0 **** 0.06
3441 C 31.486391732032217 81.70936659775144 84.70273018459338 C 0.0 **** -0.24
3442 H 31.249211121087882 80.64762441022883 84.64342972384387 H 0.0 **** 0.06
3443 H 32.22159146554699 81.96052124075072 83.93849698487091 H 0.0 **** 0.06
3444 H 31.895115390967703 81.9352420884675 85.6882087450364 H 0.0 **** 0.06
3445 H 30.58097243323823 82.29424272910056 84.54327964635533 H 0.0 **** 0.06
3446 C 2.3590839306232807 1.2913005494224876 5.496634824463968 C 0.0 **** -0.24
3447 H 3.0109972062523713 1.4298716663264486 4.633798883846339 H 0.0 **** 0.06
3448 H 2.928962358370068 0.8530859629154861 6.3159072189359335 H 0.0 **** 0.06
3449 H 1.5376057355783255 0.62700762774125 5.228252264861851 H 0.0 **** 0.06
3450 H 1.958683064577258 2.255881024693565 5.807324898148693 H 0.0 **** 0.06
3451 C 32.89115629131885 93.0159208849636 55.416198296134944 C 0.0 **** -0.24
3452 H 32.382821812371304 92.27435538319855 54.79969575355033 H 0.0 **** 0.06
3453 H 32.26714068051007 93.90559259017499 55.50168213690335 H 0.0 **** 0.06
3454 H 33.841497242795015 93.28197267696885 54.952070851962674 H 0.0 **** 0.06
3455 H 33.0739850042242 92.6014699436636 56.40673537570801 H 0.0 **** 0.06
3456 C 61.64957790861996 13.15195172667444 20.532787594480055 C 0.0 **** -0.24
3457 H 61.41988705965656 12.854413293674469 21.55595312579095 H 0.0 **** 0.06
3458 H 62.3357957987979 13.9992801129155 20.546512167670755 H 0.0 **** 0.06
3459 H 60.72966245832413 13.43744051395575 20.022566639808076 H 0.0 **** 0.06
3460 H 62.11327586121092 12.317181656125399 20.007401226693332 H 0.0 **** 0.06
3461 C 50.59330297041117 63.737659201291336 75.32472448523782 C 0.0 **** -0.24
3462 H 51.540152161696255 64.12713716550485 75.69951276992933 H 0.0 **** 0.06
3463 H 50.13396987690999 64.47319054708868 74.66391855200192 H 0.0 **** 0.06
3464 H 49.9266889731249 63.53564860252126 76.16266790121682 H 0.0 **** 0.06
3465 H 50.77334104641386 62.814919926419336 74.7730196407916 H 0.0 **** 0.06
3466 C 20.190625349618443 34.46617147505833 106.52329178670786 C 0.0 **** -0.24
3467 H 20.076819342970396 35.45274700555365 106.97187243203093 H 0.0 **** 0.06
3468 H 19.379579724553366 33.81962595195478 106.85989783942651 H 0.0 **** 0.06
3469 H 21.14655433513758 34.037581702715784 106.82471225725347 H 0.0 **** 0.06
3470 H 20.15899043072187 34.554290333526836 105.43738801608183 H 0.0 **** 0.06
3471 C 54.28953797913488 11.200207921983562 78.9855617130379 C 0.0 **** -0.24
3472 H 55.03086740415159 10.56295903771209 78.50445756113969 H 0.0 **** 0.06
3473 H 54.68400529856876 12.213140828198561 79.07505606918046 H 0.0 **** 0.06
3474 H 54.06206140783058 10.809081260335248 79.97716447961456 H 0.0 **** 0.06
3475 H 53.379969889937705 11.21727417159623 78.3842245425724 H 0.0 **** 0.06
3476 C 38.185291773542815 24.455009540627657 58.45305836233656 C 0.0 **** -0.24
3477 H 38.07504618392741 25.522288818353616 58.64781105070435 H 0.0 **** 0.06
3478 H 37.836110146261916 24.233181418076526 57.44423864750679 H 0.0 **** 0.06
3479 H 37.59313551288014 23.892025296903796 59.17481277431986 H 0.0 **** 0.06
3480 H 39.23413261756656 24.175617865178936 58.545518176123494 H 0.0 **** 0.06
3481 C 26.104149572070284 70.07414366908016 60.87547014641987 C 0.0 **** -0.24
3482 H 25.68866358472843 69.99681630804736 61.88005591524694 H 0.0 **** 0.06
3483 H 27.174315428138783 69.86848302392103 60.9084772909399 H 0.0 **** 0.06
3484 H 25.937642190805306 71.07982180486759 60.489239004510935 H 0.0 **** 0.06
3485 H 25.614171935425517 69.34981135499808 60.223896377745035 H 0.0 **** 0.06
3486 C 21.326998124487403 95.06094948425061 97.60035277376744 C 0.0 **** -0.24
3487 H 20.275322800975573 95.22763980090792 97.83117957634454 H 0.0 **** 0.06
3488 H 21.484197445953896 95.1654177715007 96.52701804603021 H 0.0 **** 0.06
3489 H 21.61273045943699 94.05694221408851 97.91392435539854 H 0.0 **** 0.06
3490 H 21.93490448625832 95.79399135325909 98.13041236463562 H 0.0 **** 0.06
3491 C 101.34873451484242 92.51235316898641 12.97020120218879 C 0.0 **** -0.24
3492 H 102.3815046490243 92.71411930144023 13.25203967194362 H 0.0 **** 0.06
3493 H 100.677716899299 93.01582704338784 13.666734160359496 H 0.0 **** 0.06
3494 H 101.1666903097324 91.43842113692904 13.00178562784663 H 0.0 **** 0.06
3495 H 101.16869321109537 92.88318023676311 11.96082062328739 H 0.0 **** 0.06
3496 C 34.58481699200513 65.36776704108846 17.94195271039038 C 0.0 **** -0.24
3497 H 34.49931770091024 65.60511353614518 16.881290066131612 H 0.0 **** 0.06
3498 H 35.321768743597715 66.0264296821423 18.40256251717642 H 0.0 **** 0.06
3499 H 34.90061104838753 64.33052461317331 18.057663590044086 H 0.0 **** 0.06
3500 H 33.61815953823799 65.50943121723688 18.425611009392128 H 0.0 **** 0.06
3501 C 6.047118375201904 95.33138968849296 82.84266458754391 C 0.0 **** -0.24
3502 H 5.500658466539704 94.6894338259052 83.53318752013641 H 0.0 **** 0.06
3503 H 6.263926358704083 96.28410451245479 83.32688821120124 H 0.0 **** 0.06
3504 H 5.441846618548311 95.50558371680052 81.95251443578508 H 0.0 **** 0.06
3505 H 6.981094876228838 94.84734310053308 82.55859863245908 H 0.0 **** 0.06
3506 C 0.7497713246651472 67.88895695680739 36.81984722233105 C 0.0 **** -0.24
3507 H 0.028639013917697298 68.7057120837078 36.85634347519468 H 0.0 **** 0.06
3508 H 0.6433053879012789 67.2705259142862 37.71047211905966 H 0.0 **** 0.06
3509 H 1.7597607027284 68.29843992877761 36.77977332717987 H 0.0 **** 0.06
3510 H 0.5677614289067066 67.28334891108497 35.93266125043047 H 0.0 **** 0.06
3511 C 89.36943843601318 66.68743334514089 50.96138948016841 C 0.0 **** -0.24
3512 H 89.79459693081287 66.52381604269985 51.95201220096715 H 0.0 **** 0.06
3513 H 89.56097733093225 67.71330046446762 50.64897285503389 H 0.0 **** 0.06
3514 H 88.2942107629645 66.51112410044368 50.9952305759993 H 0.0 **** 0.06
3515 H 89.82820902806844 65.9984556113297 50.25229503821555 H 0.0 **** 0.06
3516 C 55.96066947090896 84.61553185635239 88.58173299954109 C 0.0 **** -0.24
3517 H 57.035746873346326 84.76704971666129 88.6744669703057 H 0.0 **** 0.06
3518 H 55.63889633772682 84.90144674439352 87.58079024794836 H 0.0 **** 0.06
3519 H 55.4422396421688 85.22885886165454 89.31966068420093 H 0.0 **** 0.06
3520 H 55.726430842236546 83.56483929666382 88.7527830393482 H 0.0 **** 0.06
3521 C 11.607357461355605 42.53892904147648 42.89304506905896 C 0.0 **** -0.24
3522 H 11.685618184808845 43.25372147937554 43.71274365792104 H 0.0 **** 0.06
3523 H 12.590921553882481 42.38830895248954 42.44754648013682 H 0.0 **** 0.06
3524 H 10.92107815030738 42.92527405812612 42.138367641386566 H 0.0 **** 0.06
3525 H 11.230647449542914 41.58937039498622 43.27437391890197 H 0.0 **** 0.06
3526 C 14.208875663457036 3.911904892934203 3.785224889602091 C 0.0 **** -0.24
3527 H 14.08600049780668 2.8284924925525416 3.807941210369677 H 0.0 **** 0.06
3528 H 13.374828742942483 4.3603160511315195 3.2445272671033933 H 0.0 **** 0.06
3529 H 15.143815950625708 4.161345975389793 3.283129750876526 H 0.0 **** 0.06
3530 H 14.229049399302113 4.296757309361681 4.804821547554241 H 0.0 **** 0.06
3531 C 79.02491270699784 89.3236290497434 92.04805654679858 C 0.0 **** -0.24
3532 H 78.48949318992362 88.70132026769626 91.33196132630924 H 0.0 **** 0.06
3533 H 78.33259291139132 89.67011835546377 92.81648562558668 H 0.0 **** 0.06
3534 H 79.45513203528216 90.18259215206173 91.53308331861017 H 0.0 **** 0.06
3535 H 79.82045123397444 88.74103394897872 92.51202754083117 H 0.0 **** 0.06
3536 C 17.663763831044047 86.99427465051436 41.32508360983883 C 0.0 **** -0.24
3537 H 17.633429790684637 86.28610315260755 42.153531382940685 H 0.0 **** 0.06
3538 H 18.663168256399157 86.9995753011384 40.88866928852144 H 0.0 **** 0.06
3539 H 17.420158573162656 87.99128903768441 41.691063747919145 H 0.0 **** 0.06
3540 H 16.938046431150507 86.69705654053547 40.56828816763573 H 0.0 **** 0.06
3541 C 62.57128968017062 106.4330849075494 82.7234105785152 C 0.0 **** -0.24
3542 H 62.901331475733485 105.59738715201614 82.10663722906702 H 0.0 **** 0.06
3543 H 63.38628065714377 106.74843906657813 83.37430698600974 H 0.0 **** 0.06
3544 H 61.720062840615554 106.12266992253123 83.32947255473675 H 0.0 **** 0.06
3545 H 62.27623707011 107.26310957634341 82.0812488185062 H 0.0 **** 0.06
3546 C 34.959701811051275 99.30413241667276 33.51419691011509 C 0.0 **** -0.24
3547 H 35.87169516237225 98.91629032339608 33.96811578986063 H 0.0 **** 0.06
3548 H 34.38632456338644 98.47981274527335 33.08915649287522 H 0.0 **** 0.06
3549 H 35.22009370888634 100.01114682105434 32.725494511547396 H 0.0 **** 0.06
3550 H 34.36340033317464 99.80934008189355 34.27272797817474 H 0.0 **** 0.06
3551 C 0.661023730025704 57.367487787440496 69.23522746677564 C 0.0 **** -0.24
3552 H 0.5647968917512571 57.70842659945521 70.26630741196573 H 0.0 **** 0.06
3553 H 1.0867979145482423 56.36333032761229 69.22418562670107 H 0.0 **** 0.06
3554 H 1.3142037604769712 58.0457860265563 68.68805750875033 H 0.0 **** 0.06
3555 H -0.32252550953256787 57.35130934373194 68.76520844679949 H 0.0 **** 0.06
3556 C 21.162786670996013 10.170973978850693 48.34767754678805 C 0.0 **** -0.24
3557 H 20.258674737249798 9.562950989581323 48.37749965791696 H 0.0 **** 0.06
3558 H 21.067827093987614 10.92431411296946 47.56449422739411 H 0.0 **** 0.06
3559 H 22.02168306921458 9.53471849127928 48.137842927008904 H 0.0 **** 0.06
3560 H 21.30101948619702 10.663016072999744 49.3107761941325 H 0.0 **** 0.06
3561 C 20.266686937000316 84.26467389769084 39.94211704823988 C 0.0 **** -0.24
3562 H 20.578895744198036 85.13405067606436 39.362733388294146 H 0.0 **** 0.06
3563 H 19.352153006937613 84.50010291390072 40.48663572141925 H 0.0 **** 0.06
3564 H 21.05275417758608 83.99870039086898 40.64842297842273 H 0.0 **** 0.06
3565 H 20.083646300240645 83.42640771186473 39.270243093151294 H 0.0 **** 0.06
3566 C 98.42037948695122 75.45295041019762 11.9100977147166 C 0.0 **** -0.24
3567 H 97.94116559575743 76.21326250903093 11.292616291820215 H 0.0 **** 0.06
3568 H 98.37961320012879 74.49073443748739 11.397438625210004 H 0.0 **** 0.06
3569 H 97.89924961609461 75.3791878180096 12.864674296770282 H 0.0 **** 0.06
3570 H 99.46015726462562 75.729160939483 12.0836793925708 H 0.0 **** 0.06
3571 C 54.66393656419822 59.1188461930284 105.32561366384816 C 0.0 **** -0.24
3572 H 54.02322354635387 58.37003955299264 105.79105016919236 H 0.0 **** 0.06
3573 H 55.684000126446286 59.0036965209184 105.69233371660304 H 0.0 **** 0.06
3574 H 54.29792987606571 60.1153865797566 105.57431047931614 H 0.0 **** 0.06
3575 H 54.64958510360912 58.98646084205691 104.24304406574502 H 0.0 **** 0.06
3576 C 36.6762760354336 47.71460299948859 103.81867892950895 C 0.0 **** -0.24
3577 H 37.68152730448685 47.72682999738507 104.23887537685043 H 0.0 **** 0.06
3578 H 36.716534441786436 47.35429388566061 102.79064180968064 H 0.0 **** 0.06
3579 H 36.26299378651339 48.72302200545249 103.83509821082475 H 0.0 **** 0.06
3580 H 36.04320926600964 47.05391098283218 104.41188065006085 H 0.0 **** 0.06
3581 C 82.59260367031163 76.1292675172899 70.27224819999495 C 0.0 **** -0.24
3582 H 83.62486518483686 76.48060692971148 70.2729773619044 H 0.0 **** 0.06
3583 H 82.21327803689039 76.12018154298418 69.24957068671695 H 0.0 **** 0.06
3584 H 81.98220722881823 76.79489528144231 70.8815277040969 H 0.0 **** 0.06
3585 H 82.55302874843207 75.12012642555146 70.68301311506244 H 0.0 **** 0.06
3586 C 64.19409618065654 40.73769815871054 47.58164850963697 C 0.0 **** -0.24
3587 H 64.93971346842673 40.414807391258876 48.307904730940805 H 0.0 **** 0.06
3588 H 63.40537284726733 39.98803486911646 47.51306138082889 H 0.0 **** 0.06
3589 H 64.66661060948664 40.859790278948594 46.606599089039065 H 0.0 **** 0.06
3590 H 63.766293720959055 41.68867099399597 47.899429000905585 H 0.0 **** 0.06
3591 C 40.51674244259752 95.68088355913443 51.44569638174721 C 0.0 **** -0.24
3592 H 39.71731261146809 96.39472454159284 51.24354849173119 H 0.0 **** 0.06
3593 H 40.50902839817243 95.41734536661679 52.502955472660915 H 0.0 **** 0.06
3594 H 41.47663763990863 96.13001228089519 51.189200093813696 H 0.0 **** 0.06
3595 H 40.362991514083035 94.78394281212573 50.845740837585794 H 0.0 **** 0.06
3596 C 86.40569393723831 24.1289652413935 74.00356479314705 C 0.0 **** -0.24
3597 H 86.40781483000853 23.427131645037292 73.16932871651797 H 0.0 **** 0.06
3598 H 87.42815964526926 24.43706980637964 74.22193181842039 H 0.0 **** 0.06
3599 H 85.97427399673359 23.648163440994722 74.8816736606542 H 0.0 **** 0.06
3600 H 85.81069836703057 25.003976836761268 73.74067371737738 H 0.0 **** 0.06
3601 C 25.151719122530693 78.55955844287996 99.12896565826742 C 0.0 **** -0.24
3602 H 25.911943355923057 79.32511995961033 98.97489304313956 H 0.0 **** 0.06
3603 H 25.259452818906595 77.78193507518347 98.37233226751243 H 0.0 **** 0.06
3604 H 24.161762061502486 79.00945526603829 99.04998718804 H 0.0 **** 0.06
3605 H 25.272948979505827 78.12173246108921 100.12020199596645 H 0.0 **** 0.06
3606 C 19.37907791825029 70.09557664531565 89.37800892170311 C 0.0 **** -0.24
3607 H 19.778988061763357 70.04930613004397 88.36478700585828 H 0.0 **** 0.06
3608 H 19.910561009889932 70.86242682064044 89.94357619882933 H 0.0 **** 0.06
3609 H 19.511590328181114 69.12900249593382 89.86456683548919 H 0.0 **** 0.06
3610 H 18.318750985635234 70.34169571555913 89.33952742298214 H 0.0 **** 0.06
3611 C 14.723843771748705 103.48651944196203 106.1003192844326 C 0.0 **** -0.24
3612 H 15.420327050032881 103.2780981400083 105.28910029904094 H 0.0 **** 0.06
3613 H 15.183227044307955 104.17942272990175 106.80472734411941 H 0.0 **** 0.06
3614 H 14.47574994789656 102.55734452382836 106.61362440517973 H 0.0 **** 0.06
3615 H 13.815130893820992 103.9301568943809 105.69377849695769 H 0.0 **** 0.06
3616 C 82.1229702404977 91.36009440494068 75.955601682274 C 0.0 **** -0.24
3617 H 82.46756228877138 91.4684964129019 74.9268572704928 H 0.0 **** 0.06
3618 H 82.45578791125507 92.21624578307684 76.54201271708791 H 0.0 **** 0.06
3619 H 82.53550721477455 90.44523388081328 76.38112275007688 H 0.0 **** 0.06
3620 H 81.03469447757064 91.30928315664127 75.97018742050676 H 0.0 **** 0.06
3621 C 94.91015349013045 93.63258901926028 49.60590695515435 C 0.0 **** -0.24
3622 H 95.70583275364979 94.34548601421452 49.82639771741671 H 0.0 **** 0.06
3623 H 94.16024399161398 94.1115212657482 48.97590744776198 H 0.0 **** 0.06
3624 H 94.44820468545893 93.30354724608006 50.53641622081196 H 0.0 **** 0.06
3625 H 95.32853550705363 92.77180391035634 49.08383970659338 H 0.0 **** 0.06
3626 C 25.270488286887712 57.852324397260155 32.86295042703594 C 0.0 **** -0.24
3627 H 24.7470808235704 57.702843798306255 31.918383381368074 H 0.0 **** 0.06
3628 H 24.581871448119756 58.26956668440585 33.59815479523343 H 0.0 **** 0.06
3629 H 26.102280610641884 58.54162793945031 32.71192081544041 H 0.0 **** 0.06
3630 H 25.651209554380074 56.89630179416589 33.222049014977244 H 0.0 **** 0.06
3631 C 94.12208131538311 97.74233363775666 42.76677072809673 C 0.0 **** -0.24
3632 H 94.12096402882622 96.71688951713854 42.39602842521708 H 0.0 **** 0.06
3633 H 95.15025748896699 98.08660215556579 42.87873347012521 H 0.0 **** 0.06
3634 H 93.61928803467009 97.77894274588819 43.73434682359988 H 0.0 **** 0.06
3635 H 93.59706078895157 98.38493751335926 42.059865909693826 H 0.0 **** 0.06
3636 C 13.67051275334508 26.203557571411267 97.18916675595742 C 0.0 **** -0.24
3637 H 14.7271723989561 26.065178353323745 96.96183163239918 H 0.0 **** 0.06
3638 H 13.471769142686611 25.870123174880035 98.20765101328057 H 0.0 **** 0.06
3639 H 13.069625711064475 25.620765768877476 96.4916080504562 H 0.0 **** 0.06
3640 H 13.41522900920124 27.25913937384115 97.09554528647948 H 0.0 **** 0.06
3641 C 66.06392438174268 15.1896543697288 83.70862282848998 C 0.0 **** -0.24
3642 H 66.22967859890109 15.877197534061963 82.87934625572098 H 0.0 **** 0.06
3643 H 67.01852900024804 14.953909903394447 84.18039961553981 H 0.0 **** 0.06
3644 H 65.6060911960895 14.273608558257536 83.3351170590343 H 0.0 **** 0.06
3645 H 65.40256454804208 15.654653502799306 84.4393537367054 H 0.0 **** 0.06
3646 C 17.12893470762799 60.344124031375685 7.98626398000826 C 0.0 **** -0.24
3647 H 18.079232145180015 59.893080324875974 8.272141695522407 H 0.0 **** 0.06
3648 H 17.276038134584667 60.97149773262184 7.106862734734051 H 0.0 **** 0.06
3649 H 16.754241384569184 60.95236207243272 8.809377638858052 H 0.0 **** 0.06
3650 H 16.408530905148382 59.5591962712549 7.757424624826072 H 0.0 **** 0.06
3651 C 66.15083318051403 20.67102813743108 52.64980461259765 C 0.0 **** -0.24
3652 H 65.19017160566054 21.166537668659913 52.7834356919943 H 0.0 **** 0.06
3653 H 66.91987013512708 21.21205990602212 53.203280541651935 H 0.0 **** 0.06
3654 H 66.40792371153591 20.65606098567318 51.59030653087234 H 0.0 **** 0.06
3655 H 66.0867955987913 19.647931997921376 53.02299796286482 H 0.0 **** 0.06
3656 C 48.866840856886924 4.984149014683908 84.81181049968616 C 0.0 **** -0.24
3657 H 49.349832488040825 4.771542233141133 83.85865883479204 H 0.0 **** 0.06
3658 H 49.607128802037806 5.359648141958758 85.51787695956868 H 0.0 **** 0.06
3659 H 48.42012386204186 4.070509320392389 85.20481580813052 H 0.0 **** 0.06
3660 H 48.08979277063701 5.735227995084614 84.66508147631382 H 0.0 **** 0.06
3661 C 8.651379834950191 67.99561518951035 100.83979583009521 C 0.0 **** -0.24
3662 H 8.196854717821282 67.28715758356302 101.5313703993763 H 0.0 **** 0.06
3663 H 9.725181625651587 67.8165604708822 100.78927049896168 H 0.0 **** 0.06
3664 H 8.468561428668622 69.01222425270097 101.18924138076302 H 0.0 **** 0.06
3665 H 8.213224509769532 67.86796829807346 99.849166252856 H 0.0 **** 0.06
3666 C 36.86869299590879 66.79387715914953 100.42720102431133 C 0.0 **** -0.24
3667 H 37.7504637060203 66.82176403768007 101.06789945243509 H 0.0 **** 0.06
3668 H 36.99949377748964 66.02944254936219 99.66164138277009 H 0.0 **** 0.06
3669 H 36.73578667631421 67.76622913606631 99.95128577902136 H 0.0 **** 0.06
3670 H 35.990352265649754 66.56126115099224 101.02901748016598 H 0.0 **** 0.06
3671 C 35.87177273039683 96.78665971632114 106.1306585643652 C 0.0 **** -0.24
3672 H 36.60515656230288 96.95547340401288 105.34072065238269 H 0.0 **** 0.06
3673 H 34.98359354867364 96.31721671385378 105.70626514636427 H 0.0 **** 0.06
3674 H 35.59917319255558 97.74060324076837 106.58206852306574 H 0.0 **** 0.06
3675 H 36.30087876551448 96.1331053170853 106.88997230205888 H 0.0 **** 0.06
3676 C 73.24547959597157 101.17730628244699 9.412265665865164 C 0.0 **** -0.24
3677 H 72.46101400848045 101.92468706819842 9.297686593163405 H 0.0 **** 0.06
3678 H 72.79902058756232 100.21859935871584 9.677286650116798 H 0.0 **** 0.06
3679 H 73.9316237166023 101.48946514718727 10.200693136747589 H 0.0 **** 0.06
3680 H 73.79217967560032 101.07772029426081 8.474268658536118 H 0.0 **** 0.06
3681 C 44.72990695593927 91.40765657932126 86.51317965758327 C 0.0 **** -0.24
3682 H 45.32910877170619 90.76509055952694 87.15752564850379 H 0.0 **** 0.06
3683 H 44.332500427360344 90.82201331475466 85.68499268281755 H 0.0 **** 0.06
3684 H 45.35209423349693 92.21344741310439 86.12399098736091 H 0.0 **** 0.06
3685 H 43.90641627094806 91.83092417476799 87.08795206564707 H 0.0 **** 0.06
3686 C 78.49790248012255 60.90830573093692 63.14624604401813 C 0.0 **** -0.24
3687 H 78.2387298110699 59.91559183240378 63.51213711801125 H 0.0 **** 0.06
3688 H 78.21784072879632 61.65385855699478 63.890470545514916 H 0.0 **** 0.06
3689 H 77.96452219058392 61.10347763897573 62.216617064164495 H 0.0 **** 0.06
3690 H 79.57216168882945 60.95977105631343 62.967181224247284 H 0.0 **** 0.06
3691 C 16.55054183719433 1.4320542737623896 94.91498807177288 C 0.0 **** -0.24
3692 H 17.10920105810935 0.5005219315375484 95.00561409370152 H 0.0 **** 0.06
3693 H 15.609546809361689 1.2421224692381543 94.398841806073 H 0.0 **** 0.06
3694 H 17.137527183312724 2.154307247021137 94.34829634053676 H 0.0 **** 0.06
3695 H 16.3464271385649 1.83068297352051 95.90874108800577 H 0.0 **** 0.06
3696 C 106.82994525010893 79.48254943356733 71.42070627746554 C 0.0 **** -0.24
3697 H 105.86516373209069 79.98491177830905 71.3515730918387 H 0.0 **** 0.06
3698 H 107.07624793590648 79.31086353732547 72.46855963022556 H 0.0 **** 0.06
3699 H 107.5982972387928 80.10637136382891 70.96366236039292 H 0.0 **** 0.06
3700 H 106.77985901425684 78.5276588154107 70.89683891452094 H 0.0 **** 0.06
3701 C 47.95701054517655 22.99251675281728 8.825617799437055 C 0.0 **** -0.24
3702 H 47.030518617270246 23.27479939751603 8.324783535152278 H 0.0 **** 0.06
3703 H 48.40196258554855 23.872243479790765 9.289310822997663 H 0.0 **** 0.06
3704 H 48.651088701434496 22.575012953523245 8.095400810013132 H 0.0 **** 0.06
3705 H 47.74281128291445 22.246722586820184 9.590835692839903 H 0.0 **** 0.06
3706 C 90.45768282872196 40.43864601548557 84.57945842687872 C 0.0 **** -0.24
3707 H 89.49861926352709 40.93321876452609 84.42568398572519 H 0.0 **** 0.06
3708 H 90.2933918536627 39.373000999740974 84.74267587433263 H 0.0 **** 0.06
3709 H 90.95219498417698 40.868098177551424 85.45155380080553 H 0.0 **** 0.06
3710 H 91.08475712127434 40.58004171567488 83.69927049942413 H 0.0 **** 0.06
3711 C 50.4452825649275 92.9476422917529 24.563733122476123 C 0.0 **** -0.24
3712 H 51.04630454364113 92.61940893033936 25.41226785307711 H 0.0 **** 0.06
3713 H 51.017407852822835 92.82190549037918 23.643709379810957 H 0.0 **** 0.06
3714 H 50.18334040422775 93.9977253673906 24.688093421069865 H 0.0 **** 0.06
3715 H 49.535278487571794 92.34965578705763 24.5106440878063 H 0.0 **** 0.06
3716 C 15.357071510403884 85.0429737334556 54.77285105446072 C 0.0 **** -0.24
3717 H 15.681476869169785 84.67267706635579 53.80087924310147 H 0.0 **** 0.06
3718 H 15.812090878263803 86.01573935478308 54.96057465173305 H 0.0 **** 0.06
3719 H 15.663242216704077 84.34255577265952 55.54933662874548 H 0.0 **** 0.06
3720 H 14.27150701950383 85.14186959985136 54.779563650856815 H 0.0 **** 0.06
3721 C 33.004981242815774 37.25577321841615 9.339900181035773 C 0.0 **** -0.24
3722 H 33.483123273350344 37.70401599413972 8.469264037509234 H 0.0 **** 0.06
3723 H 31.975907061048645 37.60725971561911 9.410662121659414 H 0.0 **** 0.06
3724 H 33.54961321105239 37.54129160107968 10.240717614997777 H 0.0 **** 0.06
3725 H 33.01324461758293 36.170174298681445 9.240379190412668 H 0.0 **** 0.06
3726 C 7.798497293784891 54.3798620408825 25.175909666203324 C 0.0 **** -0.24
3727 H 7.375143184839317 55.05792438495985 24.434946468989807 H 0.0 **** 0.06
3728 H 7.6056123301690235 54.767962047536656 26.175880899562117 H 0.0 **** 0.06
3729 H 8.872986705728096 54.29555366017573 25.018355763869238 H 0.0 **** 0.06
3730 H 7.337980510839259 53.396904714455275 25.07317248656088 H 0.0 **** 0.06
3731 C 71.62107565067794 38.118278919038886 94.75836822623462 C 0.0 **** -0.24
3732 H 71.8187511352208 38.84999474854327 93.97387339615193 H 0.0 **** 0.06
3733 H 71.49669027311546 38.63296762039955 95.7113842541382 H 0.0 **** 0.06
3734 H 72.45969912339763 37.42480180152759 94.82666098435996 H 0.0 **** 0.06
3735 H 70.7120433383293 37.5670673475106 94.51989450224691 H 0.0 **** 0.06
3736 C 56.3364425339081 27.218681127361126 59.147655652281884 C 0.0 **** -0.24
3737 H 55.812164437696104 27.770127320879748 59.92844390990078 H 0.0 **** 0.06
3738 H 56.78918238531335 27.92196656576731 58.448112969467104 H 0.0 **** 0.06
3739 H 55.63066248608615 26.581004039450296 58.6166094194038 H 0.0 **** 0.06
3740 H 57.11506823602606 26.602409724235933 59.59909264803983 H 0.0 **** 0.06
3741 C 47.6524484858744 46.419567427829975 1.4531407603030715 C 0.0 **** -0.24
3742 H 46.98677443002862 47.02753482031994 0.8406390058534328 H 0.0 **** 0.06
3743 H 47.99986998550389 45.56479633004267 0.871821198523719 H 0.0 **** 0.06
3744 H 47.11539364257288 46.06629634999683 2.3326066681243134 H 0.0 **** 0.06
3745 H 48.50767320086345 47.0183118745793 1.7654410179450792 H 0.0 **** 0.06
3746 C 12.504406129963343 94.70321094739865 78.93546103057517 C 0.0 **** -0.24
3747 H 12.384591485652066 94.1271145058127 79.85342077079078 H 0.0 **** 0.06
3748 H 13.178836706773666 94.17499100961976 78.26140405424556 H 0.0 **** 0.06
3749 H 12.91938734021241 95.68245032354127 79.17341802259887 H 0.0 **** 0.06
3750 H 11.533020785263517 94.82632478230681 78.45604031188837 H 0.0 **** 0.06
3751 C 38.1363705499643 97.2350030227224 59.10849211027062 C 0.0 **** -0.24
3752 H 38.0940872014342 98.32417226089606 59.11710597053769 H 0.0 **** 0.06
3753 H 37.983076062340686 96.85765141272444 60.11985470572097 H 0.0 **** 0.06
3754 H 39.11140850770993 96.91293769838202 58.74376812562451 H 0.0 **** 0.06
3755 H 37.35627501433807 96.84728568572282 58.453914464527884 H 0.0 **** 0.06
3756 C 23.465270683106915 78.67703647806664 14.881655508253871 C 0.0 **** -0.24
3757 H 23.6219360196119 77.63162544996243 14.613231356319815 H 0.0 **** 0.06
3758 H 22.50128693166146 79.00898425438541 14.49569343412358 H 0.0 **** 0.06
3759 H 24.259616345478364 79.28501678726306 14.449925766952134 H 0.0 **** 0.06
3760 H 23.47817892596374 78.77833868628477 15.966539333773525 H 0.0 **** 0.06
3761 C 62.09076186213035 102.55784977843325 92.38289762940968 C 0.0 **** -0.24
3762 H 61.38487545656069 102.2839607014825 93.16629651419112 H 0.0 **** 0.06
3763 H 62.621910782188536 103.46436857991273 92.67227657311383 H 0.0 **** 0.06
3764 H 61.5499474386925 102.7352741361945 91.45306587882317 H 0.0 **** 0.06
3765 H 62.80600832193342 101.74798798889668 92.2375287430977 H 0.0 **** 0.06
3766 C 21.973349336926248 106.96608659991048 80.91866101359888 C 0.0 **** -0.24
3767 H 21.854320861442034 106.07387354968739 81.53338030059633 H 0.0 **** 0.06
3768 H 21.08959244850223 107.0962301871404 80.29237895862354 H 0.0 **** 0.06
3769 H 22.85447420156288 106.85620198239792 80.28655339062257 H 0.0 **** 0.06
3770 H 22.094161124963875 107.83720633849612 81.56309537765321 H 0.0 **** 0.06
3771 C 88.2701853384276 98.99175693307248 81.16779676377843 C 0.0 **** -0.24
3772 H 87.99333171817779 98.6466936292822 80.17143331959153 H 0.0 **** 0.06
3773 H 89.18808039224213 98.49564557255252 81.48274260631118 H 0.0 **** 0.06
3774 H 87.46987395171053 98.75640973810576 81.86966719917702 H 0.0 **** 0.06
3775 H 88.42851284877243 100.0702075875441 81.1467180060027 H 0.0 **** 0.06
3776 C 86.48677634951083 64.18888683124962 84.87169383774753 C 0.0 **** -0.24
3777 H 86.93204752673785 64.93047453928824 84.2072970977179 H 0.0 **** 0.06
3778 H 86.34644632831272 63.253501330291954 84.32958390764101 H 0.0 **** 0.06
3779 H 85.52244145757855 64.55246604929361 85.22596640853375 H 0.0 **** 0.06
3780 H 87.14657227872222 64.02180516746628 85.72233106837388 H 0.0 **** 0.06
3781 C 60.97723021644151 52.44449305223219 103.76303034242721 C 0.0 **** -0.24
3782 H 60.56224209906645 51.8413303462367 102.95510005421042 H 0.0 **** 0.06
3783 H 60.29573667066029 52.42872173737311 104.61407356065371 H 0.0 **** 0.06
3784 H 61.10653564337525 53.470940989734686 103.41942379673617 H 0.0 **** 0.06
3785 H 61.94252546132162 52.035838303360265 104.06244662357611 H 0.0 **** 0.06
3786 C 67.21317568553792 80.73454322448106 36.54010499899215 C 0.0 **** -0.24
3787 H 67.288011866121 81.78360665409565 36.25474706730023 H 0.0 **** 0.06
3788 H 68.06459777062304 80.4668677732393 37.16620244709645 H 0.0 **** 0.06
3789 H 67.20986953130011 80.11357013379038 35.64405019204031 H 0.0 **** 0.06
3790 H 66.28911575052695 80.57506451620759 37.09636709108054 H 0.0 **** 0.06
3791 C 105.82303418994164 106.54594524170275 85.3627093467195 C 0.0 **** -0.24
3792 H 105.31209765571802 107.50392761624802 85.46166568685487 H 0.0 **** 0.06
3793 H 106.88237780943145 106.67408456423993 85.58941445385727 H 0.0 **** 0.06
3794 H 105.71228850149026 106.17927266517864 84.34183111775724 H 0.0 **** 0.06
3795 H 105.3867190990757 105.82798598781602 86.05694226468177 H 0.0 **** 0.06
3796 C 39.299232396924694 58.0362045741515 64.03689983920808 C 0.0 **** -0.24
3797 H 40.23592396044625 57.957306420194186 63.48453697671161 H 0.0 **** 0.06
3798 H 38.88239076798752 59.03494516741557 63.90474834014637 H 0.0 **** 0.06
3799 H 39.486570418047506 57.8581098017159 65.09615734288136 H 0.0 **** 0.06
3800 H 38.5930671035401 57.29521032527589 63.66277848097323 H 0.0 **** 0.06
3801 C 17.848020084921274 10.912615921690247 89.98338411972306 C 0.0 **** -0.24
3802 H 18.612977992118367 10.531118250835902 89.3075168200493 H 0.0 **** 0.06
3803 H 17.890284027845375 10.36480681502519 90.92585944720236 H 0.0 **** 0.06
3804 H 16.865329896940082 10.780864776491057 89.52977925932876 H 0.0 **** 0.06
3805 H 18.02281334647397 11.971578749165303 90.16998715269428 H 0.0 **** 0.06
3806 C 58.809689558651655 27.48636239202662 88.38658509151918 C 0.0 **** -0.24
3807 H 57.968255632334575 27.84622963466353 88.97795315160528 H 0.0 **** 0.06
3808 H 59.25959229158272 26.626176705682127 88.88246897830487 H 0.0 **** 0.06
3809 H 59.55104378087799 28.278620417621312 88.28804680429795 H 0.0 **** 0.06
3810 H 58.45866732471731 27.192299668711144 87.39763807825847 H 0.0 **** 0.06
3811 C 97.65813699276875 45.66500350212485 57.2553786505911 C 0.0 **** -0.24
3812 H 97.10147527923694 46.321777011150516 57.92477618398186 H 0.0 **** 0.06
3813 H 98.5073432584716 46.207636972747366 56.83986048099305 H 0.0 **** 0.06
3814 H 97.0061529495662 45.334975219271826 56.445998707040786 H 0.0 **** 0.06
3815 H 98.01532374486075 44.79843728279488 57.81100467516521 H 0.0 **** 0.06
3816 C 83.4151492801993 64.86603526702368 82.03671565470097 C 0.0 **** -0.24
3817 H 84.47491333120456 64.99541054679744 82.25788963718429 H 0.0 **** 0.06
3818 H 82.88080284240618 64.61952684377945 82.95364102802552 H 0.0 **** 0.06
3819 H 83.29125066479546 64.05826294407092 81.3151654263022 H 0.0 **** 0.06
3820 H 83.01631746913506 65.78985384105329 81.61939315366885 H 0.0 **** 0.06
3821 C 37.30514483594255 79.06528149716496 16.574987811165187 C 0.0 **** -0.24
3822 H 36.59255032360851 78.44903739111577 17.122684755817485 H 0.0 **** 0.06
3823 H 36.80950936867275 79.97231108939607 16.226958253256647 H 0.0 **** 0.06
3824 H 37.68383656661068 78.50693523785297 15.71885538219107 H 0.0 **** 0.06
3825 H 38.13423986224363 79.33221499134272 17.23026534890796 H 0.0 **** 0.06
3826 C 98.56539729460476 24.04110324002474 92.11908996353966 C 0.0 **** -0.24
3827 H 99.17033327665311 23.754411978725926 91.25848708379051 H 0.0 **** 0.06
3828 H 99.10526160174788 24.7794282917325 92.71204894915795 H 0.0 **** 0.06
3829 H 98.3635961839087 23.160900982734887 92.73042625096993 H 0.0 **** 0.06
3830 H 97.62353703655708 24.46780909824622 91.77491406280961 H 0.0 **** 0.06
3831 C 96.31015325359465 86.70648317692061 16.46615509686245 C 0.0 **** -0.24
3832 H 96.5509482346751 87.33641618453534 17.322908809156132 H 0.0 **** 0.06
3833 H 96.84865316057416 85.76142083773802 16.547738243337875 H 0.0 **** 0.06
3834 H 96.60456494236676 87.21484133526941 15.548737860357619 H 0.0 **** 0.06
3835 H 95.23758447120522 86.51376302458209 16.447344253962427 H 0.0 **** 0.06
3836 C 47.643646903654655 52.70962862942505 32.90318979291118 C 0.0 **** -0.24
3837 H 48.006008746821095 51.84393416162222 32.3498077929259 H 0.0 **** 0.06
3838 H 47.60256728400637 52.46993051131118 33.96599787152883 H 0.0 **** 0.06
3839 H 46.64616054441754 52.97389864786823 32.55199322366221 H 0.0 **** 0.06
3840 H 48.31916322801246 53.54994831122464 32.74589963555064 H 0.0 **** 0.06
3841 C 43.54590821864707 53.898025717046096 105.15424507046082 C 0.0 **** -0.24
3842 H 44.43243090898028 54.445348993112475 105.47385489004479 H 0.0 **** 0.06
3843 H 42.74273091048326 54.0558767988735 105.87407001964895 H 0.0 **** 0.06
3844 H 43.77726934246283 52.834199373345484 105.09534450416773 H 0.0 **** 0.06
3845 H 43.23153981951771 54.25591246205744 104.17425871497463 H 0.0 **** 0.06
3846 C 2.0393729713983646 86.38844864967614 5.642344157429889 C 0.0 **** -0.24
3847 H 1.1584675474883852 86.87156418243617 5.2171326571458465 H 0.0 **** 0.06
3848 H 1.775627204233075 85.38692790542456 5.980557145572449 H 0.0 **** 0.06
3849 H 2.4021277314877807 86.97471284378308 6.486236897085046 H 0.0 **** 0.06
3850 H 2.8187168232760484 86.32231671316279 4.8833280683917355 H 0.0 **** 0.06
3851 C 32.268888921777105 4.733357239365375 46.24528124334383 C 0.0 **** -0.24
3852 H 31.407294999354136 4.070609294608346 46.33007990227178 H 0.0 **** 0.06
3853 H 33.09950051588402 4.324005142569547 46.820519420797886 H 0.0 **** 0.06
3854 H 32.008210390476464 5.718542212158809 46.632292858178694 H 0.0 **** 0.06
3855 H 32.55810801595359 4.8203994508979235 45.198380753410504 H 0.0 **** 0.06
3856 C 66.58285470534801 75.48035877595969 40.98985926290146 C 0.0 **** -0.24
3857 H 67.48671667831431 74.96274403104731 41.31244453239513 H 0.0 **** 0.06
3858 H 65.79727143873956 74.75132517167049 40.7920977255617 H 0.0 **** 0.06
3859 H 66.79337238240268 76.0451665105925 40.08212626191553 H 0.0 **** 0.06
3860 H 66.25695776236023 76.16282089636475 41.775050552853685 H 0.0 **** 0.06
3861 C 104.36601180253143 95.43548308989946 69.5779259102813 C 0.0 **** -0.24
3862 H 105.42565132070246 95.57451167614131 69.36476909500375 H 0.0 **** 0.06
3863 H 104.12398562102464 95.90184615103048 70.53343602248825 H 0.0 **** 0.06
3864 H 104.14227358691471 94.37002859811652 69.62606757151157 H 0.0 **** 0.06
3865 H 103.77318397052159 95.89646513422157 68.78767250809743 H 0.0 **** 0.06
3866 C 4.949799804324982 51.40534756649891 0.7371179939694912 C 0.0 **** -0.24
3867 H 5.183598590132306 52.46547165877846 0.8358638899263724 H 0.0 **** 0.06
3868 H 4.513789301595736 51.219405376814635 -0.24450976578066275 H 0.0 **** 0.06
3869 H 4.239490160493247 51.11721465173344 1.5120969245793958 H 0.0 **** 0.06
3870 H 5.863189333428892 50.819712723604724 0.8452944481499003 H 0.0 **** 0.06
3871 C 61.59788415653219 94.96419429213176 53.84015161396812 C 0.0 **** -0.24
3872 H 61.36978426177308 95.19507260653918 52.79990293252257 H 0.0 **** 0.06
3873 H 62.417315343938014 95.59873248833568 54.181117327873324 H 0.0 **** 0.06
3874 H 61.8891667101189 93.9172394634395 53.92434642049895 H 0.0 **** 0.06
3875 H 60.716797186122335 95.14800231554491 54.45452043061789 H 0.0 **** 0.06
3876 C 95.31283433794647 78.86461547234 62.26467143202824 C 0.0 **** -0.24
3877 H 95.97272579205044 78.30545715792726 61.6014535571815 H 0.0 **** 0.06
3878 H 94.84310915325574 79.67626092374746 61.70916660358051 H 0.0 **** 0.06
3879 H 95.89222408544495 79.2771088237746 63.090568190529865 H 0.0 **** 0.06
3880 H 94.5439739743187 78.19944517683126 62.65628077011509 H 0.0 **** 0.06
3881 C 58.84199997450298 58.14180958367905 80.5796873109231 C 0.0 **** -0.24
3882 H 58.61597366160623 58.569054601220955 79.60237797483963 H 0.0 **** 0.06
3883 H 59.91314006145217 57.94700384108211 80.6522852258123 H 0.0 **** 0.06
3884 H 58.293832685577684 57.20824102188263 80.70317833702116 H 0.0 **** 0.06
3885 H 58.5462534516559 58.84311808510972 81.35902935490681 H 0.0 **** 0.06
3886 C 18.139578468595232 34.7540307000001 87.66599153209128 C 0.0 **** -0.24
3887 H 17.874417009837842 33.95555849220881 86.97334716487072 H 0.0 **** 0.06
3888 H 19.202060695334794 34.981128966956135 87.5702905850396 H 0.0 **** 0.06
3889 H 17.926368111412657 34.43444917053375 88.6862702773058 H 0.0 **** 0.06
3890 H 17.554863353297904 35.64421767157353 87.43426735750785 H 0.0 **** 0.06
3891 C 32.57909517110247 62.03784263676506 12.838842562944077 C 0.0 **** -0.24
3892 H 33.29050872089867 61.63943378367074 12.115572317745047 H 0.0 **** 0.06
3893 H 32.30488580314113 61.25591940124707 13.546665253145854 H 0.0 **** 0.06
3894 H 31.68803409852405 62.386237471542515 12.3169652843542 H 0.0 **** 0.06
3895 H 33.0345510059175 62.87067025714991 13.37488254031269 H 0.0 **** 0.06
3896 C 20.524916825212983 86.68906323525468 89.09379251895345 C 0.0 **** -0.24
3897 H 19.7396122541075 85.96382578648357 88.8839163241598 H 0.0 **** 0.06
3898 H 20.791324813714795 86.64078835778312 90.15008938609672 H 0.0 **** 0.06
3899 H 20.166320864915917 87.69130659078809 88.85457922026288 H 0.0 **** 0.06
3900 H 21.400985821074784 86.46201593928589 88.48621260513632 H 0.0 **** 0.06
3901 C 95.87743240479813 0.7817336466992515 74.51372630219961 C 0.0 **** -0.24
3902 H 95.32931129588155 0.8652938849587599 75.45314991709694 H 0.0 **** 0.06
3903 H 96.91502395672688 1.0776301182287398 74.67112005870402 H 0.0 **** 0.06
3904 H 95.42210316451673 1.4326348445378585 73.76841794572428 H 0.0 **** 0.06
3905 H 95.84237531313676 -0.2502326329291691 74.16496952154742 H 0.0 **** 0.06
3906 C 93.75652086165897 93.37811109309996 83.45006648632591 C 0.0 **** -0.24
3907 H 94.81213752339434 93.4341411980156 83.18341349160892 H 0.0 **** 0.06
3908 H 93.64139386359463 93.57350332351798 84.51644511541963 H 0.0 **** 0.06
3909 H 93.37605269693546 92.38325131008162 83.21835179272148 H 0.0 **** 0.06
3910 H 93.19849121238735 94.12255263334207 82.88221227221248 H 0.0 **** 0.06
3911 C 35.799769081586625 4.568081483119359 45.114782906109156 C 0.0 **** -0.24
3912 H 35.68333015184868 3.9406449766096703 45.99821320552388 H 0.0 **** 0.06
3913 H 35.42321384868539 5.5687801817412925 45.329077154709864 H 0.0 **** 0.06
3914 H 35.23590430843219 4.136925367182476 44.28686462322719 H 0.0 **** 0.06
3915 H 36.854617349998676 4.625331799952489 44.84571367351373 H 0.0 **** 0.06
3916 C 14.613166881163743 34.15409844153345 65.58128327748199 C 0.0 **** -0.24
3917 H 15.511808260020818 33.537994589566274 65.54221348037055 H 0.0 **** 0.06
3918 H 14.253281404248835 34.33722585736695 64.56855156232837 H 0.0 **** 0.06
3919 H 14.847070072829741 35.104731383699246 66.06177268200486 H 0.0 **** 0.06
3920 H 13.843780424971808 33.63711553989042 66.15427964949743 H 0.0 **** 0.06
3921 C 106.4599472650596 71.69928599177979 36.24289235675565 C 0.0 **** -0.24
3922 H 107.26603316404018 72.39748745170962 36.46907804748815 H 0.0 **** 0.06
3923 H 106.4467630388548 70.90686323632053 36.99198121165654 H 0.0 **** 0.06
3924 H 106.6212826794973 71.26478226598951 35.25616183627909 H 0.0 **** 0.06
3925 H 105.50726047424324 72.22828296475825 36.256225270506775 H 0.0 **** 0.06
3926 C 1.032683547695612 106.9523034548166 54.03078923285358 C 0.0 **** -0.24
3927 H 1.829636692310416 107.49210327609508 54.542807369379034 H 0.0 **** 0.06
3928 H 0.8402581559033138 107.4190989311386 53.064199759168105 H 0.0 **** 0.06
3929 H 0.12690083811028785 106.98179685657723 54.63602679574683 H 0.0 **** 0.06
3930 H 1.3345347842857507 105.91546443715137 53.87983749204494 H 0.0 **** 0.06
3931 C 74.28836968105651 103.34760672964615 30.138913615998966 C 0.0 **** -0.24
3932 H 74.54618986771158 103.81062651152149 31.092017594470576 H 0.0 **** 0.06
3933 H 74.90446015354738 102.4605075681011 29.98899578742696 H 0.0 **** 0.06
3934 H 74.46793319586197 104.05630985692756 29.330695507333274 H 0.0 **** 0.06
3935 H 73.23629517168808 103.063256472381 30.146584998284716 H 0.0 **** 0.06
3936 C 12.830341576768703 66.05816719297606 48.53623071668315 C 0.0 **** -0.24
3937 H 12.079545298066805 65.3306005325938 48.22662056360656 H 0.0 **** 0.06
3938 H 13.498938327636623 66.26580941487137 47.70116977862634 H 0.0 **** 0.06
3939 H 13.404673069565575 65.65447519901815 49.36996017499814 H 0.0 **** 0.06
3940 H 12.33741994755431 66.9790016120855 48.84637407222996 H 0.0 **** 0.06
3941 C 34.22482338508087 106.96601575318016 50.05568322261797 C 0.0 **** -0.24
3942 H 33.81722115354802 107.26817544342482 49.09096479188611 H 0.0 **** 0.06
3943 H 33.51447328403009 107.21566480799194 50.84360883734678 H 0.0 **** 0.06
3944 H 35.164433074709734 107.48967578648222 50.231747151708305 H 0.0 **** 0.06
3945 H 34.40276761008272 105.89074286707266 50.053281079374074 H 0.0 **** 0.06
3946 C 43.93081029470528 52.805584752826405 81.16876454931224 C 0.0 **** -0.24
3947 H 43.42284359339041 52.387752892321004 80.29950102197114 H 0.0 **** 0.06
3948 H 43.74961315577639 52.169628010929074 82.03562287385552 H 0.0 **** 0.06
3949 H 43.55050960488995 53.80774553752889 81.36602540032118 H 0.0 **** 0.06
3950 H 45.00192633276086 52.85621661820625 80.9723986439704 H 0.0 **** 0.06
3951 C 7.798024969297046 67.74975729364914 49.145890042873866 C 0.0 **** -0.24
3952 H 8.477365768880304 67.00975956194121 48.72318550363409 H 0.0 **** 0.06
3953 H 6.778152947719732 67.52697018386215 48.83337981923111 H 0.0 **** 0.06
3954 H 8.078085935307683 68.74300224166736 48.79287998052262 H 0.0 **** 0.06
3955 H 7.859554196685252 67.72059820114427 50.23368349792848 H 0.0 **** 0.06
3956 C 98.93459187437776 46.328056869996885 37.42089504578758 C 0.0 **** -0.24
3957 H 99.57229321409483 46.92491009315509 36.76949048779347 H 0.0 **** 0.06
3958 H 98.38786462753484 46.986929077178246 38.09684291620704 H 0.0 **** 0.06
3959 H 99.54881961681195 45.639864365238594 38.00164203575172 H 0.0 **** 0.06
3960 H 98.22741731767582 45.76139826502387 36.81501808845921 H 0.0 **** 0.06
3961 C 39.00068596949515 19.0259665631894 61.442189478357676 C 0.0 **** -0.24
3962 H 37.984687858582504 19.12479548264656 61.823576895174625 H 0.0 **** 0.06
3963 H 39.70294739799303 19.431237877948917 62.171617211727465 H 0.0 **** 0.06
3964 H 39.09207266588899 19.575245739198664 60.505776368805115 H 0.0 **** 0.06
3965 H 39.22218997596289 17.97334761450216 61.26943249122915 H 0.0 **** 0.06
3966 C 3.4396657487355355 26.579433075713006 18.5434137023138 C 0.0 **** -0.24
3967 H 2.395072787788024 26.892610981883156 18.52632807102026 H 0.0 **** 0.06
3968 H 4.076487182041376 27.430015886474248 18.30185000806118 H 0.0 **** 0.06
3969 H 3.592923012718913 25.789198194028913 17.809266103964987 H 0.0 **** 0.06
3970 H 3.6899802907976493 26.20623870004254 19.5367139173066 H 0.0 **** 0.06
3971 C 89.62727297697236 66.15542137726564 10.347263652640478 C 0.0 **** -0.24
3972 H 90.41137655689106 65.67121814591289 10.929356870287947 H 0.0 **** 0.06
3973 H 89.88241158653452 66.11090020542537 9.287430663570774 H 0.0 **** 0.06
3974 H 89.53607711431576 67.19662210644194 10.656355963471086 H 0.0 **** 0.06
3975 H 88.68095226256715 65.64132917282612 10.515269650151623 H 0.0 **** 0.06
3976 C 83.05096449612847 49.36645657000719 0.09076667576442654 C 0.0 **** -0.24
3977 H 83.2008057097326 49.06197591489388 1.1265267068819682 H 0.0 **** 0.06
3978 H 81.98714545141618 49.33477365448243 -0.1463134329803748 H 0.0 **** 0.06
3979 H 83.59194467970505 48.688062982176405 -0.5687075644878168 H 0.0 **** 0.06
3980 H 83.42455035157121 50.38098679544947 -0.046527601046499 H 0.0 **** 0.06
3981 C 81.99429330807263 68.78440308449859 99.34451314344089 C 0.0 **** -0.24
3982 H 81.61815862487157 68.40598050704523 98.39351377157958 H 0.0 **** 0.06
3983 H 82.92683881849584 69.3233087892304 99.1779982637137 H 0.0 **** 0.06
3984 H 82.17216391052992 67.94898259219346 100.02152078592309 H 0.0 **** 0.06
3985 H 81.25807763262881 69.45769223172601 99.78288842011439 H 0.0 **** 0.06
3986 C 54.20526950032341 60.980765220788044 24.846233400220967 C 0.0 **** -0.24
3987 H 53.992049354939574 59.91287438978619 24.87614974346704 H 0.0 **** 0.06
3988 H 53.98171448007575 61.36769050060464 23.850835088643407 H 0.0 **** 0.06
3989 H 55.25872610470757 61.14686544993239 25.071256952116897 H 0.0 **** 0.06
3990 H 53.58970136254987 61.496307978294126 25.583641874255846 H 0.0 **** 0.06
3991 C 68.29824564889972 48.89737129222568 29.044636227117223 C 0.0 **** -0.24
3992 H 69.27243351548034 48.62500240147516 28.63850090673867 H 0.0 **** 0.06
3993 H 68.32706773577287 49.92776030986399 29.397692064711634 H 0.0 **** 0.06
3994 H 68.05394068694848 48.2346487562633 29.87567515403498 H 0.0 **** 0.06
3995 H 67.54116439216196 48.79955451355235 28.266809421357323 H 0.0 **** 0.06
3996 C 58.107064203940055 101.04197118264801 39.085123990224076 C 0.0 **** -0.24
3997 H 57.149353819019844 101.41342177813942 39.4506058794459 H 0.0 **** 0.06
3998 H 57.98314936728376 100.02641539620208 38.70928059346426 H 0.0 **** 0.06
3999 H 58.83204467561253 101.04324215394809 39.898589645171086 H 0.0 **** 0.06
4000 H 58.46314402867032 101.68643415453823 38.28027964110481 H 0.0 **** 0.06
4001 C 74.62568405442327 73.09446136153116 71.55378154128485 C 0.0 **** -0.24
4002 H 74.65382641168264 72.16384417405015 72.1203610624988 H 0.0 **** 0.06
4003 H 74.2689953689901 72.89424399590393 70.54363755296615 H 0.0 **** 0.06
4004 H 75.62803221588611 73.52201861757698 71.5076758610899 H 0.0 **** 0.06
4005 H 73.9529230025267 73.79763506347916 72.04440359942149 H 0.0 **** 0.06
4006 C 66.34038470058641 9.340303225875719 52.13933980725321 C 0.0 **** -0.24
4007 H 65.84617778182542 8.64510481612804 52.8181058989737 H 0.0 **** 0.06
4008 H 65.87251638576134 9.282088281472152 51.155598959001736 H 0.0 **** 0.06
4009 H 67.39462449206081 9.077926742679262 52.05588496843333 H 0.0 **** 0.06
4010 H 66.24716713469746 10.354453272896173 52.52628530755254 H 0.0 **** 0.06
4011 C 79.85022777381354 73.03500869924783 46.491925342390914 C 0.0 **** -0.24
4012 H 79.23237051165468 73.26337536331616 45.62386155048853 H 0.0 **** 0.06
4013 H 79.5005214255655 72.1127681365642 46.95515151769674 H 0.0 **** 0.06
4014 H 79.78200973801921 73.85183525912208 47.21067800821111 H 0.0 **** 0.06
4015 H 80.88686647236217 72.91391191162396 46.17710396841074 H 0.0 **** 0.06
4016 C 42.83909495111985 39.45612014057045 58.190286304212265 C 0.0 **** -0.24
4017 H 42.4953677375394 39.79601391957354 57.213541449768854 H 0.0 **** 0.06
4018 H 43.686060957075114 38.78150743675647 58.06157331279789 H 0.0 **** 0.06
4019 H 42.029281808201176 38.93023238632577 58.69640928312839 H 0.0 **** 0.06
4020 H 43.14415654039104 40.31418764922887 58.78732665340604 H 0.0 **** 0.06
4021 C 53.891942378482405 79.88490096501123 52.402602844760054 C 0.0 **** -0.24
4022 H 53.01587366970383 79.3657684684675 52.0154417414613 H 0.0 **** 0.06
4023 H 54.64745811643703 79.15577522464318 52.69540198126646 H 0.0 **** 0.06
4024 H 53.606856988294815 80.48138283701957 53.269943297576106 H 0.0 **** 0.06
4025 H 54.297048010341605 80.53884499717236 51.62975720658477 H 0.0 **** 0.06
4026 C 17.136149594051574 80.4360447110201 69.07727883330111 C 0.0 **** -0.24
4027 H 16.538655451315094 79.58206330408606 69.39640140255237 H 0.0 **** 0.06
4028 H 17.883125426361573 80.10713225115727 68.35479256435742 H 0.0 **** 0.06
4029 H 17.6343741587732 80.87351686188113 69.94262392212798 H 0.0 **** 0.06
4030 H 16.486602862551933 81.18128195120693 68.6174372994746 H 0.0 **** 0.06
4031 C 75.87485863082873 96.83872676161181 68.80294331865335 C 0.0 **** -0.24
4032 H 75.71256512199659 96.73300322125769 67.72975502664644 H 0.0 **** 0.06
4033 H 76.6798081966532 96.17194513498615 69.11475775531886 H 0.0 **** 0.06
4034 H 74.96044478817112 96.5795546696101 69.33595441337295 H 0.0 **** 0.06
4035 H 76.14914612905471 97.8690265124188 69.02891784346912 H 0.0 **** 0.06
4036 C 97.57797428469098 91.28530297402341 5.864591965600539 C 0.0 **** -0.24
4037 H 97.46193627123102 92.36114499067043 5.995568451141025 H 0.0 **** 0.06
4038 H 97.18895194351785 90.9942538224318 4.888350313943022 H 0.0 **** 0.06
4039 H 97.02567316998085 90.76335406089169 6.6468045800952495 H 0.0 **** 0.06
4040 H 98.63378869228944 91.02290301748178 5.929491066531341 H 0.0 **** 0.06
4041 C 70.71028716046433 82.45641882162127 66.99093234620166 C 0.0 **** -0.24
4042 H 69.84430745568783 83.02544647929965 66.65171056860304 H 0.0 **** 0.06
4043 H 71.18153142149957 82.97575123687967 67.82626130110911 H 0.0 **** 0.06
4044 H 71.42363244796204 82.35985185146096 66.17345944010893 H 0.0 **** 0.06
4045 H 70.38954603341004 81.46582176977836 67.31246351366659 H 0.0 **** 0.06
4046 C 25.1526908240873 47.37370837088355 60.065068010467485 C 0.0 **** -0.24
4047 H 26.01744244703613 46.853389757697244 60.475167772069426 H 0.0 **** 0.06
4048 H 24.265618894373844 47.11583243367994 60.64414669996455 H 0.0 **** 0.06
4049 H 25.007599272154593 47.07461653178905 59.025818120782674 H 0.0 **** 0.06
4050 H 25.31915951038816 48.449394812461776 60.1123915227339 H 0.0 **** 0.06
4051 C 75.48892815447195 75.49060769128633 86.34263104975072 C 0.0 **** -0.24
4052 H 74.51547855039266 75.21065498853196 86.74567704538583 H 0.0 **** 0.06
4053 H 76.16724122399458 75.72745746411587 87.16161714168344 H 0.0 **** 0.06
4054 H 75.3769569720136 76.36417493076797 85.69947127539189 H 0.0 **** 0.06
4055 H 75.89348245591393 74.66138831901011 85.76236925442208 H 0.0 **** 0.06
4056 C 22.55521007697486 53.006566176201545 93.66945772420732 C 0.0 **** -0.24
4057 H 23.252635446001705 53.284235850877565 94.45968117799336 H 0.0 **** 0.06
4058 H 21.542672118472538 53.28342812762486 93.96473402606367 H 0.0 **** 0.06
4059 H 22.604081393230118 51.930739588870324 93.5026961201078 H 0.0 **** 0.06
4060 H 22.82045880674673 53.52918867312849 92.74960033601647 H 0.0 **** 0.06
4061 C 53.63689453558152 98.66247829772678 58.96959494542722 C 0.0 **** -0.24
4062 H 54.49198156361609 99.23812148999164 58.61460787836859 H 0.0 **** 0.06
4063 H 53.70225086925615 97.64255550151901 58.589496553557524 H 0.0 **** 0.06
4064 H 52.715322394041976 99.12486511908673 58.61354719037348 H 0.0 **** 0.06
4065 H 53.63672414712039 98.6461192913315 60.058923640537785 H 0.0 **** 0.06
4066 C 106.45624165127052 100.47910256032979 76.65887135164562 C 0.0 **** -0.24
4067 H 106.38355066630336 101.18579683229547 75.83258392951116 H 0.0 **** 0.06
4068 H 106.08490853519945 100.94769571878338 77.57107195675387 H 0.0 **** 0.06
4069 H 107.49745632398111 100.18852938468932 76.79735934930063 H 0.0 **** 0.06
4070 H 105.85792942540917 99.59568350991475 76.43472409163482 H 0.0 **** 0.06
4071 C 56.66776513088996 46.858824633156466 40.34561414523168 C 0.0 **** -0.24
4072 H 57.59974778778701 46.344907127437665 40.10867561752343 H 0.0 **** 0.06
4073 H 56.87863689994805 47.7178049247629 40.98269943545753 H 0.0 **** 0.06
4074 H 55.998451712838175 46.174359219802284 40.86735486676653 H 0.0 **** 0.06
4075 H 56.19512350747971 47.196844883135356 39.423197248145925 H 0.0 **** 0.06
4076 C 70.94798230690898 48.997475766728435 95.46064581868964 C 0.0 **** -0.24
4077 H 70.62812188058646 50.01994325529313 95.66291612202693 H 0.0 **** 0.06
4078 H 71.6732464970161 48.68772466171855 96.21311164339565 H 0.0 **** 0.06
4079 H 71.40659763161082 48.950632755831506 94.47275086478507 H 0.0 **** 0.06
4080 H 70.08429030644336 48.3329575461542 95.49277667840337 H 0.0 **** 0.06
4081 C 2.42670150939972 83.2721943173878 38.730565151332584 C 0.0 **** -0.24
4082 H 2.8123736398714527 84.2883600830034 38.65230390752018 H 0.0 **** 0.06
4083 H 3.165343112653943 82.63895775163002 39.2211328848104 H 0.0 **** 0.06
4084 H 2.2205084423682706 82.88417136053408 37.73287665897658 H 0.0 **** 0.06
4085 H 1.506173897224187 83.2775365015774 39.31556613739953 H 0.0 **** 0.06
4086 C 47.14904137010177 48.43819967024757 68.24127276846457 C 0.0 **** -0.24
4087 H 47.591496646039815 47.90012461800336 69.07966484760783 H 0.0 **** 0.06
4088 H 46.275228352897244 47.89499586197462 67.88074514981861 H 0.0 **** 0.06
4089 H 47.88115515741012 48.52433839374737 67.43830749347777 H 0.0 **** 0.06
4090 H 46.847670737691914 49.43403662297487 68.5681447169564 H 0.0 **** 0.06
4091 C 62.61727979940507 9.378136864511616 104.23729348604249 C 0.0 **** -0.24
4092 H 62.71932821817022 8.551723537362935 103.53301165375086 H 0.0 **** 0.06
4093 H 63.03769078989943 9.087551923861103 105.20072420882664 H 0.0 **** 0.06
4094 H 61.561848921914205 9.621799576339836 104.35957128500377 H 0.0 **** 0.06
4095 H 63.15003375434084 10.248320875087483 103.85572219344795 H 0.0 **** 0.06
4096 C 39.60313843359131 1.7650562098353895 94.28498968454022 C 0.0 **** -0.24
4097 H 39.00989022631029 1.2730779455823784 95.054801733023 H 0.0 **** 0.06
4098 H 39.17373951351237 1.55325784066659 93.30496274672763 H 0.0 **** 0.06
4099 H 40.62664951625436 1.3928052716121817 94.32156811303756 H 0.0 **** 0.06
4100 H 39.60203750613846 2.8414786944748105 94.45773848892124 H 0.0 **** 0.06
4101 C 8.587262345363456 58.335207116539664 104.97488280385014 C 0.0 **** -0.24
4102 H 8.685420294867 58.30609383231385 103.88936671723826 H 0.0 **** 0.06
4103 H 8.784882824134556 59.347077633738394 105.3295135096788 H 0.0 **** 0.06
4104 H 9.3036671903224 57.64716426004526 105.4228524420893 H 0.0 **** 0.06
4105 H 7.575910948371742 58.04224574119513 105.2566871512428 H 0.0 **** 0.06
4106 C 42.90145452637232 55.481464912962785 71.82247664506399 C 0.0 **** -0.24
4107 H 42.64399335950718 55.78818428575719 72.83600743314797 H 0.0 **** 0.06
4108 H 41.98947836269076 55.365199659373786 71.23590556723454 H 0.0 **** 0.06
4109 H 43.435448112810775 54.53144441479019 71.85572783741101 H 0.0 **** 0.06
4110 H 43.53555906530068 56.23908659256173 71.3629176244613 H 0.0 **** 0.06
4111 C 69.91300219727367 50.65780876311439 20.31745761915866 C 0.0 **** -0.24
4112 H 70.05380979263617 51.2506205459467 19.413594729149708 H 0.0 **** 0.06
4113 H 70.64919325353185 49.85478795976866 20.343206343553106 H 0.0 **** 0.06
4114 H 68.90943302381692 50.232475480856095 20.31951153568437 H 0.0 **** 0.06
4115 H 70.0389628239227 51.29560236164869 21.19276955578775 H 0.0 **** 0.06
4116 C 96.57901939515502 23.0401579138271 102.58433787566273 C 0.0 **** -0.24
4117 H 96.62561731430272 22.991475593256848 103.67291650822634 H 0.0 **** 0.06
4118 H 97.23894380150634 22.284147121345917 102.15852784878612 H 0.0 **** 0.06
4119 H 96.89519641465843 24.028156352537778 102.25180393820239 H 0.0 **** 0.06
4120 H 95.55590866389093 22.855744484881033 102.25600139043303 H 0.0 **** 0.06
4121 C 32.12235530449448 90.21855888651967 104.14747630285413 C 0.0 **** -0.24
4122 H 32.7888587138149 89.9566470936681 104.96845563687009 H 0.0 **** 0.06
4123 H 32.35403985514657 91.22627981029999 103.7990159303449 H 0.0 **** 0.06
4124 H 31.088804373490348 90.18243826232853 104.4932457726038 H 0.0 **** 0.06
4125 H 32.25708775268413 89.51158735537055 103.32965782157534 H 0.0 **** 0.06
4126 C 45.33537119023606 9.000832956624892 15.684382775445247 C 0.0 **** -0.24
4127 H 44.601213380428135 9.013603439264237 14.879362346399176 H 0.0 **** 0.06
4128 H 46.32748946745056 9.190057533941278 15.274329001707503 H 0.0 **** 0.06
4129 H 45.3231281863803 8.026904418339212 16.172551770232268 H 0.0 **** 0.06
4130 H 45.08978448765828 9.774418640855883 16.411791228285942 H 0.0 **** 0.06
4131 C 73.92615219411431 42.84819482662824 19.33148319235052 C 0.0 **** -0.24
4132 H 74.84119209206185 43.12606965674267 19.854781656699444 H 0.0 **** 0.06
4133 H 73.34419704302348 43.74463075689651 19.1161031610607 H 0.0 **** 0.06
4134 H 73.34029437521724 42.17552384088631 19.95779386816514 H 0.0 **** 0.06
4135 H 74.18022744578946 42.34703295648157 18.396978352467855 H 0.0 **** 0.06
4136 C 38.61107172500715 66.33878144342945 37.585791545574466 C 0.0 **** -0.24
4137 H 39.42065887389663 65.66529408627555 37.30425976513351 H 0.0 **** 0.06
4138 H 39.004365373376004 67.34847482353358 37.70480457775156 H 0.0 **** 0.06
4139 H 38.17222012650666 66.00573210490931 38.52610856750931 H 0.0 **** 0.06
4140 H 37.84849137786887 66.33501816398692 36.80675510565078 H 0.0 **** 0.06
4141 C 74.48061948695661 28.043966937622486 104.12630885656974 C 0.0 **** -0.24
4142 H 74.35890613927123 28.57165533166784 103.18022400928969 H 0.0 **** 0.06
4143 H 73.6970114735827 28.353113789292934 104.81809669723076 H 0.0 **** 0.06
4144 H 75.45624493487082 28.281277448841422 104.55169628065758 H 0.0 **** 0.06
4145 H 74.41139054012737 26.969654526549277 103.9543148947356 H 0.0 **** 0.06
4146 C 60.20268173684406 55.69457119465659 61.775426884059186 C 0.0 **** -0.24
4147 H 60.56826141062366 55.821149001359885 62.79398774319611 H 0.0 **** 0.06
4148 H 59.32269385280731 55.04907159463275 61.78351615141611 H 0.0 **** 0.06
4149 H 60.981911616584625 55.23951431401383 61.16394283591262 H 0.0 **** 0.06
4150 H 59.93578535689395 56.66720628703081 61.361635845120475 H 0.0 **** 0.06
4151 C 80.74760255444266 19.167294627373963 9.994424506200858 C 0.0 **** -0.24
4152 H 80.33690165307507 20.17039839475916 10.110563739681368 H 0.0 **** 0.06
4153 H 81.57563951274693 19.19371397815968 9.28512021101605 H 0.0 **** 0.06
4154 H 79.97106426907521 18.49852265839246 9.62320213240605 H 0.0 **** 0.06
4155 H 81.10643702612094 18.80746833278863 10.958909126993717 H 0.0 **** 0.06
4156 C 68.03108675722139 41.76234987394032 9.60629612986203 C 0.0 **** -0.24
4157 H 67.3448395301582 42.514605510412224 9.99617680589786 H 0.0 **** 0.06
4158 H 68.07970154001518 41.84280927115498 8.520331766720574 H 0.0 **** 0.06
4159 H 67.67531670924235 40.76961880919889 9.882563079604864 H 0.0 **** 0.06
4160 H 69.02303056518407 41.922904113105545 10.02904255640837 H 0.0 **** 0.06
4161 C 75.76684500361429 2.0139609407285937 15.97290130641548 C 0.0 **** -0.24
4162 H 75.22456849505816 1.2923787461258938 16.582323936149123 H 0.0 **** 0.06
4163 H 75.27630187092524 2.112842383762559 15.004067654009788 H 0.0 **** 0.06
4164 H 76.79128171485299 1.670536633596316 15.827932716252462 H 0.0 **** 0.06
4165 H 75.77524381700933 2.9805105992172534 16.47593201049355 H 0.0 **** 0.06
4166 C 94.97412778155598 31.451893694238436 82.33133106309559 C 0.0 **** -0.24
4167 H 94.0763002279462 32.04156868093522 82.14614520668859 H 0.0 **** 0.06
4168 H 95.11565155890369 31.3322198424405 83.40547160237156 H 0.0 **** 0.06
4169 H 95.83814487572462 31.963107636582542 81.90533161424335 H 0.0 **** 0.06
4170 H 94.86676164038118 30.471425093221193 81.86655307683206 H 0.0 **** 0.06
4171 C 55.53758109122748 49.82433859182561 66.2913361238019 C 0.0 **** -0.24
4172 H 55.00200971205513 50.74587536118818 66.51750187507693 H 0.0 **** 0.06
4173 H 56.04832070224099 49.92758906351307 65.33407018030888 H 0.0 **** 0.06
4174 H 54.83026392983454 48.99692329679749 66.2382979044047 H 0.0 **** 0.06
4175 H 56.26964100894719 49.62808870725368 67.07461829532704 H 0.0 **** 0.06
4176 C 97.74928722967115 2.7193683831739577 101.002123435378 C 0.0 **** -0.24
4177 H 98.37832097187696 2.382160776927094 100.1776567372066 H 0.0 **** 0.06
4178 H 98.34542199450142 3.313575382880515 101.69454316485943 H 0.0 **** 0.06
4179 H 97.34100090631584 1.8533871459660531 101.52346257322992 H 0.0 **** 0.06
4180 H 96.93287761746845 3.3261099060188144 100.61004590500579 H 0.0 **** 0.06
4181 C 101.8031722019516 44.167995335234195 76.60315111665341 C 0.0 **** -0.24
4182 H 102.80946733190645 44.288884353314586 76.20072135352294 H 0.0 **** 0.06
4183 H 101.26290641109202 45.11196261367721 76.5195183176983 H 0.0 **** 0.06
4184 H 101.86369290203224 43.87479602241194 77.65111872309032 H 0.0 **** 0.06
4185 H 101.27772748315212 43.39662569897206 76.0399438294451 H 0.0 **** 0.06
4186 C 75.53500884331606 34.55409630488725 5.772959453168951 C 0.0 **** -0.24
4187 H 76.37208514913158 34.089182339909485 5.252695151391318 H 0.0 **** 0.06
4188 H 75.49512762312406 34.18746960886037 6.798865920218752 H 0.0 **** 0.06
4189 H 74.60546599230116 34.30495089671831 5.261212096884082 H 0.0 **** 0.06
4190 H 75.66678581713364 35.63606280319186 5.778878122556966 H 0.0 **** 0.06
4191 C 32.86752909058357 28.124517664354357 83.30069715759602 C 0.0 **** -0.24
4192 H 32.77373132340338 27.114518130739384 82.90119916467867 H 0.0 **** 0.06
4193 H 33.439198795983614 28.096860311358654 84.22813314346725 H 0.0 **** 0.06
4194 H 31.8745159868293 28.52998483855842 83.49764920096125 H 0.0 **** 0.06
4195 H 33.37952253793038 28.75611567141536 82.57494557526978 H 0.0 **** 0.06
4196 C 45.66290219778 106.51400014662556 4.890037202534984 C 0.0 **** -0.24
4197 H 46.27571931265743 105.74502314660286 4.4205372264996825 H 0.0 **** 0.06
4198 H 44.607800908840545 106.2724363409665 4.75060607232043 H 0.0 **** 0.06
4199 H 45.877593876766014 107.48032339815715 4.4335039915971075 H 0.0 **** 0.06
4200 H 45.88719092409417 106.55725957294342 5.955910977413998 H 0.0 **** 0.06
4201 C 104.22418396577599 24.033709190983217 99.36382424380724 C 0.0 **** -0.24
4202 H 104.66845287550952 24.946998115099802 99.75976008504806 H 0.0 **** 0.06
4203 H 103.2791532452209 23.840374577464047 99.87220442531898 H 0.0 **** 0.06
4204 H 104.90374291552047 23.19769042507822 99.52795816511649 H 0.0 **** 0.06
4205 H 104.04439674135395 24.152007206966417 98.29519762574837 H 0.0 **** 0.06
4206 C 18.2740490521507 6.35134883101181 47.47284282194826 C 0.0 **** -0.24
4207 H 19.114663064695037 7.042453771809001 47.40503585569593 H 0.0 **** 0.06
4208 H 17.876558688519737 6.166019655997131 46.47402637163373 H 0.0 **** 0.06
4209 H 17.49606879551652 6.78577644234908 48.09900572730376 H 0.0 **** 0.06
4210 H 18.610676489765012 5.41164992058267 47.910045984618506 H 0.0 **** 0.06
4211 C 32.89439643992975 16.171381648124626 32.69086497924429 C 0.0 **** -0.24
4212 H 32.76163876023068 15.430083342896395 31.902673415076457 H 0.0 **** 0.06
4213 H 33.94112719540192 16.198003430332943 32.99132237333644 H 0.0 **** 0.06
4214 H 32.27644350496843 15.903858485318672 33.54860403226232 H 0.0 **** 0.06
4215 H 32.59578332446165 17.15197401003301 32.32002735820612 H 0.0 **** 0.06
4216 C 67.68180918767303 97.37828114791475 59.05559261328254 C 0.0 **** -0.24
4217 H 68.7135406447263 97.27178735906553 58.72089727680123 H 0.0 **** 0.06
4218 H 67.16394110068788 96.42597369246423 58.94314776251702 H 0.0 **** 0.06
4219 H 67.18175477811425 98.13812478196614 58.45371304145438 H 0.0 **** 0.06
4220 H 67.66923479561078 97.67829880252674 60.103449474732074 H 0.0 **** 0.06
4221 C 87.12970118945869 63.592090559141525 54.798926536639726 C 0.0 **** -0.24
4222 H 86.7018853474971 63.335638316572755 53.82917212893085 H 0.0 **** 0.06
4223 H 86.36366889694438 63.49996247182415 55.56917044027665 H 0.0 **** 0.06
4224 H 87.4994757823154 64.61710613590546 54.7736575489202 H 0.0 **** 0.06
4225 H 87.9537514959233 62.91324778896703 55.02191613845275 H 0.0 **** 0.06
4226 C 104.47711197870728 78.10583514708681 83.78838217041391 C 0.0 **** -0.24
4227 H 104.71578529252066 78.96992430835108 83.16818165013774 H 0.0 **** 0.06
4228 H 105.17611627002442 78.05383904002369 84.62366305394005 H 0.0 **** 0.06
4229 H 104.55555552120808 77.19760113017917 83.19029077395408 H 0.0 **** 0.06
4230 H 103.4606962773563 78.20293247460266 84.16966150253847 H 0.0 **** 0.06
4231 C 20.338672615181622 12.036928513334715 70.22305082948208 C 0.0 **** -0.24
4232 H 19.524836058432506 11.991326668008014 70.94675328234149 H 0.0 **** 0.06
4233 H 19.925560319658242 12.103314757609382 69.21591485827821 H 0.0 **** 0.06
4234 H 20.94924719370979 11.137148696902614 70.30621770634747 H 0.0 **** 0.06
4235 H 20.953595285074034 12.913966670974332 70.42306795854358 H 0.0 **** 0.06
4236 C 99.94593228689897 35.39465244649773 40.78210423113775 C 0.0 **** -0.24
4237 H 100.46771607280542 35.68773639487203 39.87077157288195 H 0.0 **** 0.06
4238 H 99.89193735741233 36.24638836474813 41.45967205150015 H 0.0 **** 0.06
4239 H 100.48547274270797 34.57956710883062 41.26402297764196 H 0.0 **** 0.06
4240 H 98.93676982522192 35.06473970239276 40.532335367806354 H 0.0 **** 0.06
4241 C 49.641170941802294 13.67209442833746 69.66350982331375 C 0.0 **** -0.24
4242 H 48.77639984414076 13.699082518637852 69.00055032415108 H 0.0 **** 0.06
4243 H 49.96338053841897 14.690237875507108 69.88172440076286 H 0.0 **** 0.06
4244 H 50.45335980499631 13.130104707848034 69.17846433378266 H 0.0 **** 0.06
4245 H 49.37223482284542 13.168592749585372 70.59120430693709 H 0.0 **** 0.06
4246 C 70.75671683602691 79.45486420177266 80.74302517384123 C 0.0 **** -0.24
4247 H 71.62412622911698 79.09735058893901 80.18875390650246 H 0.0 **** 0.06
4248 H 70.44690547691935 78.69591519444134 81.46210728157374 H 0.0 **** 0.06
4249 H 69.93998060779448 79.65451166486582 80.04872583556656 H 0.0 **** 0.06
4250 H 71.01600446692919 80.37255437755482 81.27141271621028 H 0.0 **** 0.06
4251 C 4.597743799348146 0.582271137673402 62.33200456882287 C 0.0 **** -0.24
4252 H 4.221878246034139 -0.15842245031421953 61.626192412195095 H 0.0 **** 0.06
4253 H 5.318990013510797 1.2283316599522607 61.83082552082902 H 0.0 **** 0.06
4254 H 5.0824758416051825 0.07403858820116227 63.166338008675524 H 0.0 **** 0.06
4255 H 3.768480131824603 1.183144598808667 62.705219730288476 H 0.0 **** 0.06
4256 C 60.04995268953917 63.2922206396384 14.044918882732361 C 0.0 **** -0.24
4257 H 60.714156601169066 62.4869179055932 14.35795779052657 H 0.0 **** 0.06
4258 H 60.461208970629 64.24846722444624 14.367721346968352 H 0.0 **** 0.06
4259 H 59.066777319431594 63.148293304658125 14.494877658437815 H 0.0 **** 0.06
4260 H 59.956373666575246 63.28493477862713 12.958616150980362 H 0.0 **** 0.06
4261 C 74.72523957669331 105.05430432557034 62.792673976168516 C 0.0 **** -0.24
4262 H 74.19165840317027 105.77852724084858 62.176777046877135 H 0.0 **** 0.06
4263 H 75.04984775325076 104.21921078763506 62.17240549121094 H 0.0 **** 0.06
4264 H 74.0646508850669 104.68863470262255 63.57854673655467 H 0.0 **** 0.06
4265 H 75.59532858657607 105.53203173339972 63.24352579924059 H 0.0 **** 0.06
4266 C 100.37934042800947 22.82898979669247 58.514075527787355 C 0.0 **** -0.24
4267 H 100.73316815947248 23.203486844429136 57.553437399999524 H 0.0 **** 0.06
4268 H 99.33364530553166 22.531469881134683 58.42544484185686 H 0.0 **** 0.06
4269 H 100.47067602721046 23.613601832841198 59.26580520806502 H 0.0 **** 0.06
4270 H 100.97796379964507 21.968782987257185 58.81228346060391 H 0.0 **** 0.06
4271 C 33.377193349966234 103.66445891510207 86.87012322814275 C 0.0 **** -0.24
4272 H 33.20977915705265 103.80273642319567 87.93867250864594 H 0.0 **** 0.06
4273 H 34.448898586082166 103.6474105418072 86.66979353168585 H 0.0 **** 0.06
4274 H 32.91646260683882 104.48478399191266 86.32073665326641 H 0.0 **** 0.06
4275 H 32.93295976356231 102.72048833038941 86.5529358923842 H 0.0 **** 0.06
4276 C 39.644845216640874 29.081419024188534 5.762246660620999 C 0.0 **** -0.24
4277 H 39.81221569227192 29.673444478288985 4.862528544697909 H 0.0 **** 0.06
4278 H 40.24005856107394 28.169609360965836 5.713206687857745 H 0.0 **** 0.06
4279 H 38.588215290614556 28.822884312944836 5.834646455676424 H 0.0 **** 0.06
4280 H 39.937806231460826 29.660608414673106 6.638350099232126 H 0.0 **** 0.06
4281 C 6.600844468937424 15.512700487344603 18.61272655263435 C 0.0 **** -0.24
4282 H 6.002570608255155 15.797314983532601 19.47872870045185 H 0.0 **** 0.06
4283 H 7.442213606673789 14.900105376423312 18.938893654762175 H 0.0 **** 0.06
4284 H 6.9745366969832645 16.410272466382025 18.11887797516899 H 0.0 **** 0.06
4285 H 5.984836716882057 14.944713254249507 17.916084875253024 H 0.0 **** 0.06
4286 C 41.85546715869344 17.660510833418684 62.99713981276058 C 0.0 **** -0.24
4287 H 41.147528136098515 18.080534166966714 63.71266794970761 H 0.0 **** 0.06
4288 H 42.03668436589851 16.61347063432771 63.23795469507624 H 0.0 **** 0.06
4289 H 42.79376340865741 18.213707965459918 63.0489262396344 H 0.0 **** 0.06
4290 H 41.4426497959206 17.737171532631606 61.99207384801528 H 0.0 **** 0.06
4291 C 91.35589949207872 66.92156468532977 101.22666297327274 C 0.0 **** -0.24
4292 H 91.80454373578866 66.18684695846184 101.89422933610768 H 0.0 **** 0.06
4293 H 92.11405730716088 67.3005169168328 100.54190345040735 H 0.0 **** 0.06
4294 H 90.95018146077594 67.74556961433922 101.81338646098024 H 0.0 **** 0.06
4295 H 90.55349585957869 66.45159821078414 100.6566070958061 H 0.0 **** 0.06
4296 C 63.73411494324495 51.35124345586095 91.13450331154897 C 0.0 **** -0.24
4297 H 64.55862774372355 50.658103947600665 91.30012019575793 H 0.0 **** 0.06
4298 H 64.11321629316204 52.26388246442579 90.67465886721243 H 0.0 **** 0.06
4299 H 63.265463795407925 51.592907389870106 92.08814072812855 H 0.0 **** 0.06
4300 H 62.997899282470954 50.889872378225505 90.47447070013489 H 0.0 **** 0.06
4301 C 17.646304087082086 34.813254682893934 46.97636363725127 C 0.0 **** -0.24
4302 H 18.13061293167135 35.6179358313044 47.5289836422545 H 0.0 **** 0.06
4303 H 18.22004022278361 34.59532115506931 46.07552095667933 H 0.0 **** 0.06
4304 H 16.63686293991566 35.11797594751402 46.69992515383717 H 0.0 **** 0.06
4305 H 17.59844615460392 33.92188479464468 47.602584914810166 H 0.0 **** 0.06
4306 C 86.47698461743404 22.94257689159436 44.19526759591727 C 0.0 **** -0.24
4307 H 86.08945899456143 23.89742216267566 44.54986326150416 H 0.0 **** 0.06
4308 H 87.51220039079254 22.829882585214094 44.51691023989062 H 0.0 **** 0.06
4309 H 86.42873808791676 22.91339408862209 43.10618798560381 H 0.0 **** 0.06
4310 H 85.87755498156776 22.13093870500162 44.6076282069055 H 0.0 **** 0.06
4311 C 18.478242828691307 24.804615368271527 15.303333553966496 C 0.0 **** -0.24
4312 H 18.683469678422384 25.874379232658725 15.26006769139184 H 0.0 **** 0.06
4313 H 19.21720948518589 24.268726109666375 14.70653647719783 H 0.0 **** 0.06
4314 H 17.48125781738925 24.60946531728098 14.908280325453646 H 0.0 **** 0.06
4315 H 18.531693616683 24.46534303796369 16.337324830664784 H 0.0 **** 0.06
4316 C 66.65952852892275 16.836601647711213 70.89267017466514 C 0.0 **** -0.24
4317 H 67.2739755428641 17.726857016612144 70.76570614128732 H 0.0 **** 0.06
4318 H 66.57813860568274 16.311707752178446 69.94039142022004 H 0.0 **** 0.06
4319 H 65.66591137290567 17.126654411277052 71.23498884378535 H 0.0 **** 0.06
4320 H 67.1205776666236 16.1798588480144 71.63159329448717 H 0.0 **** 0.06
4321 C 97.13249411329008 92.059574921266 61.58956692210049 C 0.0 **** -0.24
4322 H 96.53089919851939 91.15982735098169 61.71407605094251 H 0.0 **** 0.06
4323 H 97.47754709039035 92.40510627481268 62.56477115571434 H 0.0 **** 0.06
4324 H 96.52893802323518 92.8375341428034 61.12113096993551 H 0.0 **** 0.06
4325 H 97.99268493942802 91.83790211558056 60.95744933663573 H 0.0 **** 0.06
4326 C 12.466900955227999 70.07540407205312 1.3242800355566686 C 0.0 **** -0.24
4327 H 12.14369641405554 69.45859301341818 2.1629150309231164 H 0.0 **** 0.06
4328 H 13.55358965815688 70.03505018830737 1.2409013970616911 H 0.0 **** 0.06
4329 H 12.152410584178 71.1057036019314 1.48877734217767 H 0.0 **** 0.06
4330 H 12.017713078047393 69.70151870158486 0.40334368551715727 H 0.0 **** 0.06
4331 C 104.33921443337375 25.549848659068857 0.340907740652594 C 0.0 **** -0.24
4332 H 103.78713349459625 24.624946055096586 0.17406794879632992 H 0.0 **** 0.06
4333 H 105.2430288839352 25.33667009031427 0.9121441791329472 H 0.0 **** 0.06
4334 H 103.71457704322147 26.25098914542025 0.8962787458248016 H 0.0 **** 0.06
4335 H 104.6106903710804 25.988423427964335 -0.6193993460562432 H 0.0 **** 0.06
4336 C 44.84519832142581 95.49256964788765 1.9851124696351974 C 0.0 **** -0.24
4337 H 45.81182121187959 95.03791419800842 1.7682085333822783 H 0.0 **** 0.06
4338 H 44.11122895433169 95.15096276714968 1.2548539940029144 H 0.0 **** 0.06
4339 H 44.934313113755366 96.57689805630324 1.9333236196609676 H 0.0 **** 0.06
4340 H 44.52467095650553 95.20199754618238 2.9858470968238606 H 0.0 **** 0.06
4341 C 101.44974951022333 17.592738794559338 43.24007069134957 C 0.0 **** -0.24
4342 H 102.21544978737055 16.81795838859631 43.2805320399761 H 0.0 **** 0.06
4343 H 101.86746816190156 18.533555536111745 43.599992548453 H 0.0 **** 0.06
4344 H 100.60717750427236 17.304590255030675 43.868856466984624 H 0.0 **** 0.06
4345 H 101.11109254786419 17.715288949306053 42.2110135235397 H 0.0 **** 0.06
4346 C 61.97488993301987 80.57261443764814 60.228124964099386 C 0.0 **** -0.24
4347 H 61.737857103878284 80.89661369289668 59.214713581417044 H 0.0 **** 0.06
4348 H 62.39205352288661 79.56567337448872 60.19909095055826 H 0.0 **** 0.06
4349 H 61.06736205924118 80.57370714477847 60.83129379633549 H 0.0 **** 0.06
4350 H 62.703078040772795 81.25525053391138 60.666076724841574 H 0.0 **** 0.06
4351 C 19.883911080731025 86.16206436681847 56.98449908050624 C 0.0 **** -0.24
4352 H 19.98906287450174 85.25839327408971 57.585101592555546 H 0.0 **** 0.06
4353 H 20.80025227490802 86.74809025257895 57.04685397908024 H 0.0 **** 0.06
4354 H 19.047445381138175 86.75225786143085 57.360059359504966 H 0.0 **** 0.06
4355 H 19.697528264699258 85.88649142488259 55.9461018801299 H 0.0 **** 0.06
4356 C 44.232619266504116 22.785844052114925 106.4244716423452 C 0.0 **** -0.24
4357 H 43.410560071773645 22.946101694848295 105.72681493626195 H 0.0 **** 0.06
4358 H 43.839552809470455 22.727904786217266 107.43992501428775 H 0.0 **** 0.06
4359 H 44.936531628217416 23.61468483204402 106.35380321653173 H 0.0 **** 0.06
4360 H 44.74168233703861 21.854088077087937 106.17719989538514 H 0.0 **** 0.06
4361 C 35.25327291014588 17.379147473255927 3.256597348581778 C 0.0 **** -0.24
4362 H 35.95353720363474 17.772575012382504 3.9932121611307423 H 0.0 **** 0.06
4363 H 35.714608905274076 16.542981595735668 2.7292639403711974 H 0.0 **** 0.06
4364 H 34.99724314783364 18.162824559985324 2.543631930031893 H 0.0 **** 0.06
4365 H 34.349982429178226 17.036429945060036 3.7610799552416836 H 0.0 **** 0.06
4366 C 74.71305606377737 53.47068011445617 78.31344539591504 C 0.0 **** -0.24
4367 H 74.65526506291722 52.73934572250482 77.50722587358132 H 0.0 **** 0.06
4368 H 75.75484182358942 53.62159260563817 78.59394583565091 H 0.0 **** 0.06
4369 H 74.1532705230938 53.10663910776361 79.17475485508186 H 0.0 **** 0.06
4370 H 74.28659126174213 54.416464883525464 77.97638347655277 H 0.0 **** 0.06
4371 C 97.81978001209757 33.20835052621396 95.81822807641007 C 0.0 **** -0.24
4372 H 98.21794312382895 33.96062564669903 95.13660278995775 H 0.0 **** 0.06
4373 H 98.16365314181758 33.416711524731625 96.83150132941857 H 0.0 **** 0.06
4374 H 98.1667989187572 32.221700547880374 95.51183553253718 H 0.0 **** 0.06
4375 H 96.73008903961409 33.234964362641534 95.79091450283582 H 0.0 **** 0.06
4376 C 55.30383915818942 93.63535305531299 33.47956299565854 C 0.0 **** -0.24
4377 H 54.292769176471324 93.29367193769033 33.7013449099108 H 0.0 **** 0.06
4378 H 55.303558809725985 94.18216254844697 32.53577007210046 H 0.0 **** 0.06
4379 H 55.969076644006236 92.77494348011707 33.401363269555446 H 0.0 **** 0.06
4380 H 55.648796506542226 94.29035202565065 34.279008703187 H 0.0 **** 0.06
4381 C 87.41520987530453 50.78549332182001 76.27491331400654 C 0.0 **** -0.24
4382 H 86.89648611587137 50.00272391569263 75.7204058931786 H 0.0 **** 0.06
4383 H 87.10534651632179 50.754894278209406 77.32001864599195 H 0.0 **** 0.06
4384 H 87.16441857301226 51.75752848349481 75.8499743954255 H 0.0 **** 0.06
4385 H 88.4911019117497 50.625523088561465 76.20887143553574 H 0.0 **** 0.06
4386 C 67.67362756578495 80.68920087534406 64.80270102986867 C 0.0 **** -0.24
4387 H 67.52457090443403 80.94590921591495 63.75445125355466 H 0.0 **** 0.06
4388 H 67.00653049802457 81.28992925938903 65.42176860754162 H 0.0 **** 0.06
4389 H 68.70823158463435 80.89058731524875 65.08231108193601 H 0.0 **** 0.06
4390 H 67.4560050337164 79.63245307578408 64.95327714547074 H 0.0 **** 0.06
4391 C 62.68525501720488 78.96367559199666 76.86957632325317 C 0.0 **** -0.24
4392 H 62.8641063593934 78.34510533585967 77.74877295650492 H 0.0 **** 0.06
4393 H 61.61178437212054 79.07967786375036 76.71862939092142 H 0.0 **** 0.06
4394 H 63.1260510941066 78.4866575239775 75.99401975484014 H 0.0 **** 0.06
4395 H 63.14073645755393 79.94349356259283 77.01732667383399 H 0.0 **** 0.06
4396 C 37.54188086513316 74.91942690252812 9.341469491936337 C 0.0 **** -0.24
4397 H 38.41627053810496 74.42352866824781 8.919273593306016 H 0.0 **** 0.06
4398 H 37.8646230077331 75.67156920695301 10.062704724523428 H 0.0 **** 0.06
4399 H 36.91293846648184 74.18300461258148 9.841618843872084 H 0.0 **** 0.06
4400 H 36.975549196509455 75.39979705236902 8.54386580144282 H 0.0 **** 0.06
4401 C 15.87779689457767 86.33527850715792 50.8253443759783 C 0.0 **** -0.24
4402 H 14.967368648784486 85.95505531461225 50.360780608468005 H 0.0 **** 0.06
4403 H 15.617724115443309 86.92472557696688 51.70506083565847 H 0.0 **** 0.06
4404 H 16.414074781521947 86.96169678189622 50.11273588135796 H 0.0 **** 0.06
4405 H 16.510177276126683 85.49920634288895 51.12215247296555 H 0.0 **** 0.06
4406 C 80.44476125066065 41.81562339339942 86.12999407752758 C 0.0 **** -0.24
4407 H 81.04442066066994 41.031016699534035 86.59226096088322 H 0.0 **** 0.06
4408 H 81.07115691050215 42.687793204109596 85.94265212276457 H 0.0 **** 0.06
4409 H 79.62912929943211 42.09129146462092 86.79902350608398 H 0.0 **** 0.06
4410 H 80.03532326299276 41.45211573288478 85.18775822675914 H 0.0 **** 0.06
4411 C 39.18334789489708 5.453836362563322 10.618532128564937 C 0.0 **** -0.24
4412 H 38.63943038064819 6.323543396422702 10.985835921491173 H 0.0 **** 0.06
4413 H 39.35397840367662 5.557595377501679 9.547249263447611 H 0.0 **** 0.06
4414 H 38.5992008943187 4.552838005438586 10.808697844351911 H 0.0 **** 0.06
4415 H 40.141458538083015 5.379950510065358 11.133936463378006 H 0.0 **** 0.06
4416 C 56.54489653653141 54.50590618906108 28.94458818131355 C 0.0 **** -0.24
4417 H 55.581588855199705 54.411217455771066 29.447212423863874 H 0.0 **** 0.06
4418 H 56.70139407769553 55.544965620884284 28.653946224041135 H 0.0 **** 0.06
4419 H 56.55524307970816 53.873281986777044 28.057990078716784 H 0.0 **** 0.06
4420 H 57.339772567943534 54.194948694895686 29.623186207335635 H 0.0 **** 0.06
4421 C 66.25072701706742 31.321214014279 42.18843532039511 C 0.0 **** -0.24
4422 H 66.12343294581802 32.29566205255766 42.6612492402337 H 0.0 **** 0.06
4423 H 66.75517575403768 31.44667392762092 41.22984884283403 H 0.0 **** 0.06
4424 H 65.27477490143582 30.864741417820895 42.02808609839928 H 0.0 **** 0.06
4425 H 66.85120466848502 30.680259170763584 42.83471330286108 H 0.0 **** 0.06
4426 C 37.39229783096248 73.63153886288441 106.62553199116657 C 0.0 **** -0.24
4427 H 38.0025419395723 73.51878418246957 105.72937953664615 H 0.0 **** 0.06
4428 H 36.52139391813172 72.97847470306118 106.55531541435276 H 0.0 **** 0.06
4429 H 37.06334239082183 74.66768919235938 106.71273624128699 H 0.0 **** 0.06
4430 H 37.980398481012664 73.36236163887196 107.50237856395678 H 0.0 **** 0.06
4431 C 15.70003808129174 65.31477971451605 34.710029605485914 C 0.0 **** -0.24
4432 H 16.528694263759814 65.9753022139067 34.96521711569616 H 0.0 **** 0.06
4433 H 15.739219823611347 64.42507671235026 35.337907006744445 H 0.0 **** 0.06
4434 H 15.776898048541582 65.02476665739778 33.66284069649001 H 0.0 **** 0.06
4435 H 14.756563923172042 65.83573050216191 34.87479769630207 H 0.0 **** 0.06
4436 C 50.07664939635669 52.49683637821772 72.33353121122275 C 0.0 **** -0.24
4437 H 50.572212360122954 53.39176308925827 71.9576585969582 H 0.0 **** 0.06
4438 H 49.561033661579195 51.99535540088384 71.5139941521046 H 0.0 **** 0.06
4439 H 49.35399566621171 52.77762065949837 73.10066910526575 H 0.0 **** 0.06
4440 H 50.81841292631155 51.82390787111889 72.76299339667816 H 0.0 **** 0.06
4441 C 6.636632854987042 45.158747985284094 95.75567541179097 C 0.0 **** -0.24
4442 H 6.043482575529367 45.876773268833006 96.32260060718119 H 0.0 **** 0.06
4443 H 7.569327999651108 45.62736138587326 95.44148922316121 H 0.0 **** 0.06
4444 H 6.075792782604623 44.83703253498834 94.87824776167182 H 0.0 **** 0.06
4445 H 6.8577039202362755 44.294984505492835 96.38312179795307 H 0.0 **** 0.06
4446 C 57.73328919942196 37.335807697681844 92.60914211460535 C 0.0 **** -0.24
4447 H 57.276538454417846 36.483267356261706 93.11036498372309 H 0.0 **** 0.06
4448 H 58.24805850825487 37.956066138541416 93.34293618327946 H 0.0 **** 0.06
4449 H 56.9591257922184 37.92392866854766 92.11558311845086 H 0.0 **** 0.06
4450 H 58.448914987041405 36.98075254081277 91.86734342834922 H 0.0 **** 0.06
4451 C 34.23234511549833 92.624647673543 7.350471605881495 C 0.0 **** -0.24
4452 H 35.3179032047905 92.72405617224351 7.32788121260316 H 0.0 **** 0.06
4453 H 33.91099793265133 91.97366249760145 6.537148167003238 H 0.0 **** 0.06
4454 H 33.775804241081744 93.60789170035486 7.2322076180031445 H 0.0 **** 0.06
4455 H 33.92735531974422 92.19484715099921 8.304073407779981 H 0.0 **** 0.06
4456 C 60.085230974093186 62.77720765847499 40.92503071103988 C 0.0 **** -0.24
4457 H 59.34508360714332 63.51315054025159 41.238440405618206 H 0.0 **** 0.06
4458 H 59.98370921596573 61.87861580500963 41.534638601681166 H 0.0 **** 0.06
4459 H 61.08542799918905 63.19161226051506 41.05230778792179 H 0.0 **** 0.06
4460 H 59.92602865949986 62.525842074444014 39.87628303536141 H 0.0 **** 0.06
4461 C 98.47285269607788 32.465872573736846 43.61824504953333 C 0.0 **** -0.24
4462 H 97.90252759596295 32.93578071516771 44.41870945683784 H 0.0 **** 0.06
4463 H 98.05904122209066 31.479521827800653 43.4067527045539 H 0.0 **** 0.06
4464 H 99.51447964056777 32.36466431488773 43.92445893768522 H 0.0 **** 0.06
4465 H 98.41768101254232 33.08333152066308 42.72145061288879 H 0.0 **** 0.06
4466 C 35.274100297618304 25.0888712162494 70.07900840112514 C 0.0 **** -0.24
4467 H 35.37526664872928 25.11683271821977 68.99327118099924 H 0.0 **** 0.06
4468 H 34.46699851991079 25.754590908836207 70.38470222823251 H 0.0 **** 0.06
4469 H 36.20651643986966 25.411887626577396 70.53990118066042 H 0.0 **** 0.06
4470 H 35.04571521753053 24.070853310269484 70.39522118449125 H 0.0 **** 0.06
4471 C 24.885227287821237 71.7317097163002 22.848977974202853 C 0.0 **** -0.24
4472 H 25.354666326884598 72.67671405188457 23.12217112703061 H 0.0 **** 0.06
4473 H 24.74721409897316 71.12247273856707 23.742606198652197 H 0.0 **** 0.06
4474 H 25.522552405687577 71.20080690333685 22.141829754617277 H 0.0 **** 0.06
4475 H 23.916529542234798 71.92676358510687 22.388309549165967 H 0.0 **** 0.06
4476 C 40.41222339828022 105.55581091866638 10.998805198973145 C 0.0 **** -0.24
4477 H 40.13693772008054 106.15070510059846 11.869737699030708 H 0.0 **** 0.06
4478 H 39.566188178148764 105.5033854022143 10.313075872965328 H 0.0 **** 0.06
4479 H 40.68517107686756 104.550495660542 11.317555009981959 H 0.0 **** 0.06
4480 H 41.26042137125819 106.02075196645389 10.495615611886336 H 0.0 **** 0.06
4481 C 97.48370788258381 83.93359738587054 12.516162244788049 C 0.0 **** -0.24
4482 H 97.73124546695917 84.15211602379482 11.477610640866502 H 0.0 **** 0.06
4483 H 98.28793946373959 83.3507384111754 12.966279711180874 H 0.0 **** 0.06
4484 H 96.55521462513803 83.3633953168995 12.555893985332645 H 0.0 **** 0.06
4485 H 97.3603355556666 84.86714442849373 13.064863330690201 H 0.0 **** 0.06
4486 C 76.14907432968312 48.90534596173927 91.90585759910425 C 0.0 **** -0.24
4487 H 76.88483861935077 49.568395921114245 91.45009955343602 H 0.0 **** 0.06
4488 H 75.14709029052494 49.295200440098824 91.72360988985895 H 0.0 **** 0.06
4489 H 76.32761264378183 48.848509233254106 92.97999278586099 H 0.0 **** 0.06
4490 H 76.23775765594445 47.910666909504585 91.4699889056825 H 0.0 **** 0.06
4491 C 62.669802036584855 13.50398382668304 40.36205954313917 C 0.0 **** -0.24
4492 H 63.147682399055654 13.727778572136074 41.3159059596866 H 0.0 **** 0.06
4493 H 63.43334737511151 13.249243971256618 39.625679937526826 H 0.0 **** 0.06
4494 H 62.11274685394429 14.375953597081818 40.021843624415055 H 0.0 **** 0.06
4495 H 61.988840193801465 12.662604415638526 40.48631055888325 H 0.0 **** 0.06
4496 C 101.77449820191832 23.611342896675072 48.93310797778716 C 0.0 **** -0.24
4497 H 101.35914844007742 22.65098413711109 49.23892711714741 H 0.0 **** 0.06
4498 H 101.48493992933909 24.37774256161709 49.652495423156054 H 0.0 **** 0.06
4499 H 101.39128855912786 23.874087530003987 47.94678938700998 H 0.0 **** 0.06
4500 H 102.86165096956958 23.541532845380967 48.894080643973886 H 0.0 **** 0.06
4501 C 90.82499703523057 7.773974362101825 15.795183919544684 C 0.0 **** -0.24
4502 H 91.36106467159595 8.520013889609658 16.382765633219947 H 0.0 **** 0.06
4503 H 89.78029780487739 8.06898380019041 15.70016483186896 H 0.0 **** 0.06
4504 H 90.8860622653404 6.807226640720529 16.29533350268281 H 0.0 **** 0.06
4505 H 91.27406983284361 7.700240343799479 14.805193726690163 H 0.0 **** 0.06
4506 C 5.829576506557629 57.24735960847724 32.633177799958304 C 0.0 **** -0.24
4507 H 6.897606323090713 57.39431911177505 32.791104625671295 H 0.0 **** 0.06
4508 H 5.334671067727157 58.217238518319135 32.57271072550898 H 0.0 **** 0.06
4509 H 5.4142609380498214 56.67784598759667 33.463711877028516 H 0.0 **** 0.06
4510 H 5.672244587545094 56.70091550116862 31.70318467174394 H 0.0 **** 0.06
4511 C 31.16665401238376 4.349124512151263 53.02665977524555 C 0.0 **** -0.24
4512 H 31.252610032975042 5.410247623376648 53.258491540156626 H 0.0 **** 0.06
4513 H 30.45429273409883 4.212035508901579 52.212849145068844 H 0.0 **** 0.06
4514 H 30.81809651289032 3.8114302952793366 53.909179671875506 H 0.0 **** 0.06
4515 H 32.140899432737626 3.9624137752482795 52.727279775042575 H 0.0 **** 0.06
4516 C 24.24398549529343 38.19710914244399 96.79961413875807 C 0.0 **** -0.24
4517 H 25.099426210538155 37.52444740824157 96.73755705724156 H 0.0 **** 0.06
4518 H 24.529319143437533 39.182361156465916 96.4329987904811 H 0.0 **** 0.06
4519 H 23.91816322931669 38.27512496754835 97.83738971226705 H 0.0 **** 0.06
4520 H 23.42881248892286 37.80478113409243 96.19223915131664 H 0.0 **** 0.06
4521 C 41.9533761762151 7.222229973231325 74.70639841680646 C 0.0 **** -0.24
4522 H 41.648805619221875 7.931856739602244 73.93693863922925 H 0.0 **** 0.06
4523 H 43.02890662959605 7.299486197582906 74.86701425251955 H 0.0 **** 0.06
4524 H 41.704403006868006 6.210856766807314 74.3862980108967 H 0.0 **** 0.06
4525 H 41.42981184832186 7.448530311068364 75.63582743941333 H 0.0 **** 0.06
4526 C 103.05252657974961 56.70029629498285 38.57673743896942 C 0.0 **** -0.24
4527 H 104.07911589672659 57.02089639440868 38.399146159124854 H 0.0 **** 0.06
4528 H 102.99847359390793 55.61274539271673 38.53041244960443 H 0.0 **** 0.06
4529 H 102.40167924658272 57.12960571106146 37.81586634409203 H 0.0 **** 0.06
4530 H 102.7318195025066 57.038708376767914 39.56218959848795 H 0.0 **** 0.06
4531 C 95.03429583695959 31.459779314753405 29.655954882261447 C 0.0 **** -0.24
4532 H 94.62218093374634 32.10867633830193 28.883498641905973 H 0.0 **** 0.06
4533 H 95.0981391329235 32.00858977438469 30.59563133057373 H 0.0 **** 0.06
4534 H 96.02919499536881 31.128293405229527 29.36030742638627 H 0.0 **** 0.06
4535 H 94.3861035803676 30.591961752644323 29.784451035981505 H 0.0 **** 0.06
4536 C 79.87029219105119 104.47264597504248 27.07379755947055 C 0.0 **** -0.24
4537 H 80.49129094980316 104.07017456561998 27.874792606119414 H 0.0 **** 0.06
4538 H 79.97069781326206 105.55844381694693 27.047538472456154 H 0.0 **** 0.06
4539 H 78.82869659083894 104.2070935581804 27.253088392875398 H 0.0 **** 0.06
4540 H 80.19325633796183 104.05436319094449 26.1199996664224 H 0.0 **** 0.06
4541 C 60.36397128749246 83.07344518991604 30.3977469038349 C 0.0 **** -0.24
4542 H 60.96945131162005 82.62047774943807 31.182916410080963 H 0.0 **** 0.06
4543 H 59.85189428554662 82.29122368340617 29.83763767083383 H 0.0 **** 0.06
4544 H 61.00695927247648 83.64107850276815 29.72521543759848 H 0.0 **** 0.06
4545 H 59.62799866294 83.74084326139283 30.846112622423902 H 0.0 **** 0.06
4546 C 102.45398337661175 43.96838635767551 27.039350539748924 C 0.0 **** -0.24
4547 H 102.63967260999624 42.90611827095523 26.878382343685388 H 0.0 **** 0.06
4548 H 102.97604189064407 44.54769947377969 26.278330900227786 H 0.0 **** 0.06
4549 H 102.81607000126309 44.25463444330177 28.02667976852507 H 0.0 **** 0.06
4550 H 101.38340673236996 44.16307644456259 26.97462703625098 H 0.0 **** 0.06
4551 C 58.908490591977085 56.59267124391533 49.6015696700428 C 0.0 **** -0.24
4552 H 58.54616564321046 55.69121212117727 50.095161366623174 H 0.0 **** 0.06
4553 H 59.31897261012122 56.33158243304416 48.62530078833933 H 0.0 **** 0.06
4554 H 59.68661216301635 57.05290137332349 50.211157064776536 H 0.0 **** 0.06
4555 H 58.08389994291301 57.2943133919257 49.47335776763179 H 0.0 **** 0.06
4556 C 65.01789738831343 87.72419473162262 51.67395815650074 C 0.0 **** -0.24
4557 H 64.85475046926467 87.51112081567851 52.730787060986884 H 0.0 **** 0.06
4558 H 65.53795807183627 86.8853832248978 51.211399138093526 H 0.0 **** 0.06
4559 H 65.62041388676096 88.62666589302785 51.575052441157005 H 0.0 **** 0.06
4560 H 64.0567183415003 87.87304607802082 51.18185366771773 H 0.0 **** 0.06
4561 C 27.45408151012529 92.00424153249105 87.23745248306598 C 0.0 **** -0.24
4562 H 27.551177893425802 91.26354998779972 86.44329628659167 H 0.0 **** 0.06
4563 H 27.71414767044456 91.54782217001718 88.19275907590477 H 0.0 **** 0.06
4564 H 26.425867995354423 92.3643787101559 87.27420702580191 H 0.0 **** 0.06
4565 H 28.12604096238229 92.83934799623282 87.03871795918552 H 0.0 **** 0.06
4566 C 87.76643579371304 0.4062807777300037 86.45548315036882 C 0.0 **** -0.24
4567 H 88.6080914731403 -0.2846540696208497 86.41720232500862 H 0.0 **** 0.06
4568 H 87.29440866796287 0.3477429391913942 87.4370367628105 H 0.0 **** 0.06
4569 H 87.04170303524442 0.13955648307231394 85.68663644316047 H 0.0 **** 0.06
4570 H 88.12247219472967 1.4216434937955489 86.28291051140727 H 0.0 **** 0.06
4571 C 49.39333257328698 47.97201097348949 36.32365772047626 C 0.0 **** -0.24
4572 H 48.77777261198017 48.12710105512076 35.43780181249542 H 0.0 **** 0.06
4573 H 50.156201883192665 48.749775151990605 36.37536916080208 H 0.0 **** 0.06
4574 H 49.87338750047448 46.99550578576407 36.265920749773215 H 0.0 **** 0.06
4575 H 48.765583059972045 48.01761817899268 37.21411618832383 H 0.0 **** 0.06
4576 C 5.471281740926628 36.44032474860751 100.08837724598465 C 0.0 **** -0.24
4577 H 6.2995317864049785 36.15241138503632 100.73532580171332 H 0.0 **** 0.06
4578 H 5.501718564099175 35.849059852045684 99.17306083108258 H 0.0 **** 0.06
4579 H 5.5558751431119 37.49831782893034 99.84037865476967 H 0.0 **** 0.06
4580 H 4.528573673567866 36.26279537542791 100.60488617886341 H 0.0 **** 0.06
4581 C 16.20898314545002 2.2175651833720735 67.39150835850154 C 0.0 **** -0.24
4582 H 17.056404383307438 2.5072574481701224 66.77105506118215 H 0.0 **** 0.06
4583 H 16.381470021083715 1.220003445614708 67.79782307702078 H 0.0 **** 0.06
4584 H 15.301455151321619 2.211587152727759 66.78752083710401 H 0.0 **** 0.06
4585 H 16.097235414300116 2.929520528800424 68.20977590402629 H 0.0 **** 0.06
4586 C 61.82909794931942 74.42548056141072 47.61085087090883 C 0.0 **** -0.24
4587 H 61.117479267264116 75.19200968343978 47.91637603742783 H 0.0 **** 0.06
4588 H 61.96745049196704 74.46970444054966 46.530207282170366 H 0.0 **** 0.06
4589 H 61.44657935573116 73.44271256620243 47.88874178313111 H 0.0 **** 0.06
4590 H 62.783582073591674 74.59739601651722 48.1065622367374 H 0.0 **** 0.06
4591 C 22.104632275139295 16.981792441065636 60.394172680423715 C 0.0 **** -0.24
4592 H 21.79017909061012 17.32903775116803 59.4098477298717 H 0.0 **** 0.06
4593 H 22.725985858646325 16.093708983070798 60.28386334415121 H 0.0 **** 0.06
4594 H 21.224704614388717 16.739198119729195 60.99084098194359 H 0.0 **** 0.06
4595 H 22.675442663017556 17.76671201989555 60.890769582238434 H 0.0 **** 0.06
4596 C 65.48983222391038 11.094927130265432 84.50837535223934 C 0.0 **** -0.24
4597 H 65.34619612341918 12.140712700273184 84.23720583514938 H 0.0 **** 0.06
4598 H 64.58420640820474 10.714154291788873 84.98028702077102 H 0.0 **** 0.06
4599 H 66.32480599062895 11.011448946133555 85.20398293207336 H 0.0 **** 0.06
4600 H 65.70468942434418 10.51411453739837 83.61163190950668 H 0.0 **** 0.06
4601 C 79.18403468301315 79.8510782087152 43.37219311685891 C 0.0 **** -0.24
4602 H 79.05195706909493 79.15609467221205 44.20155558510442 H 0.0 **** 0.06
4603 H 80.02009507445288 79.52312038684812 42.75400186461154 H 0.0 **** 0.06
4604 H 79.39027512496907 80.84757679850401 43.76287348658622 H 0.0 **** 0.06
4605 H 78.27591524278651 79.87722107424034 42.771559910101644 H 0.0 **** 0.06
4606 C 87.53734373747008 25.49141213236544 85.9879730524592 C 0.0 **** -0.24
4607 H 87.59204647195253 24.46367502796315 86.34809914190127 H 0.0 **** 0.06
4608 H 88.54347854864497 25.865431770547673 85.80044778684098 H 0.0 **** 0.06
4609 H 87.05153385010547 26.11329134692241 86.73968555731021 H 0.0 **** 0.06
4610 H 86.95969966421413 25.52098134231872 85.06357987997215 H 0.0 **** 0.06
4611 C 45.734037313621855 95.4391366999076 6.968963100602423 C 0.0 **** -0.24
4612 H 45.239959889366816 94.47533590406564 6.846810635115617 H 0.0 **** 0.06
4613 H 45.8730437050674 95.64370935114292 8.031119406499897 H 0.0 **** 0.06
4614 H 45.11728919512271 96.22116196812169 6.525352940163032 H 0.0 **** 0.06
4615 H 46.70352540659786 95.41572932383619 6.473009914976103 H 0.0 **** 0.06
4616 C 5.79686862345477 26.75850114371778 10.596382406045095 C 0.0 **** -0.24
4617 H 5.935520732153691 25.699725854368012 10.37810236517781 H 0.0 **** 0.06
4618 H 4.769022803560688 26.93004109027018 10.917891002920399 H 0.0 **** 0.06
4619 H 6.000508292878237 27.342808113214346 9.700123030377597 H 0.0 **** 0.06
4620 H 6.481159834453791 27.05873328145799 11.389781989413407 H 0.0 **** 0.06
4621 C 10.343101589318522 52.6789300407612 68.29824338755812 C 0.0 **** -0.24
4622 H 10.504066521816455 53.41108575257624 69.08938560019745 H 0.0 **** 0.06
4623 H 10.973054051320432 51.80649018339716 68.47700687135043 H 0.0 **** 0.06
4624 H 10.59874975096605 53.12185358927451 67.33544980968556 H 0.0 **** 0.06
4625 H 9.295726255003558 52.37596854205577 68.2922450938277 H 0.0 **** 0.06
4626 C 30.951653791897982 90.76547970241312 72.49621035804944 C 0.0 **** -0.24
4627 H 29.865985297993774 90.7830157411039 72.59223181721325 H 0.0 **** 0.06
4628 H 31.389039322406752 91.48248991505842 73.19278345258417 H 0.0 **** 0.06
4629 H 31.231634631606227 91.03202100102082 71.47713618725433 H 0.0 **** 0.06
4630 H 31.32014968363523 89.76485073871106 72.72486997121075 H 0.0 **** 0.06
4631 C 25.66801353398233 88.29825899253137 12.93519311004593 C 0.0 **** -0.24
4632 H 26.71571928743996 88.43906351633694 13.203825796077638 H 0.0 **** 0.06
4633 H 25.39893909988074 87.2497773150053 13.063843160914274 H 0.0 **** 0.06
4634 H 25.517646615847774 88.58790668514001 11.895544285731745 H 0.0 **** 0.06
4635 H 25.042484197728065 88.9158169246802 13.578698273618215 H 0.0 **** 0.06
4636 C 24.138454791975562 0.3113673401796859 74.8663642891219 C 0.0 **** -0.24
4637 H 24.981605485190244 0.9448397085263025 75.14198246122098 H 0.0 **** 0.06
4638 H 23.94160649840657 0.4128477399910082 73.79949168826359 H 0.0 **** 0.06
4639 H 23.256405861680776 0.614906525145912 75.4295537060961 H 0.0 **** 0.06
4640 H 24.375331371427762 -0.7273017856333297 75.09572996907589 H 0.0 **** 0.06
4641 C 101.65673915164884 81.84944290364882 50.02754796059983 C 0.0 **** -0.24
4642 H 102.49435009560312 82.49417323822345 50.296753244634644 H 0.0 **** 0.06
4643 H 100.78116822859614 82.46278102874425 49.81475085128038 H 0.0 **** 0.06
4644 H 101.43690083455418 81.17652229877584 50.855737934376336 H 0.0 **** 0.06
4645 H 101.91713408894859 81.26655653792469 49.14441397289449 H 0.0 **** 0.06
4646 C 23.561296595176998 70.85853062496945 95.32851279425299 C 0.0 **** -0.24
4647 H 23.960113689805752 70.40945991889754 96.23822931191856 H 0.0 **** 0.06
4648 H 22.51730581607221 70.5700049002801 95.20792320791296 H 0.0 **** 0.06
4649 H 24.136835980852183 70.51034968913093 94.46987827735558 H 0.0 **** 0.06
4650 H 23.633899761715696 71.94399376362662 95.39772457653041 H 0.0 **** 0.06
4651 C 57.265565417515774 28.32061882960545 74.97253335989129 C 0.0 **** -0.24
4652 H 56.337028182110515 28.70672572813146 75.39390588562185 H 0.0 **** 0.06
4653 H 58.0227454670806 29.10548287907841 74.9834221514796 H 0.0 **** 0.06
4654 H 57.091074149043834 27.99788839693437 73.94565721488482 H 0.0 **** 0.06
4655 H 57.6101400486898 27.47508789139539 75.56613033349561 H 0.0 **** 0.06
4656 C 98.10220066440016 4.432716515503202 77.67218569644629 C 0.0 **** -0.24
4657 H 97.52529917312998 3.538163711288817 77.9060652389569 H 0.0 **** 0.06
4658 H 98.92699289968792 4.17007087822239 77.00888802800887 H 0.0 **** 0.06
4659 H 98.4984982621877 4.860807349038453 78.59387937613165 H 0.0 **** 0.06
4660 H 97.45873693678496 5.162757333259606 77.18068741088281 H 0.0 **** 0.06
4661 C 74.69990960987047 27.50072711332666 69.74162993937881 C 0.0 **** -0.24
4662 H 74.04794096191966 28.289347503107592 69.36713904503989 H 0.0 **** 0.06
4663 H 75.16786032302446 27.827327731901846 70.67116904362075 H 0.0 **** 0.06
4664 H 75.47087338384841 27.285495007746874 69.00253207351614 H 0.0 **** 0.06
4665 H 74.11229272778348 26.60209949168805 69.92732180279313 H 0.0 **** 0.06
4666 C 50.80454840246995 12.3285493969511 80.00144825786097 C 0.0 **** -0.24
4667 H 50.56311117244837 11.912357442574564 79.02354999419768 H 0.0 **** 0.06
4668 H 50.070998770494214 11.987641503220324 80.733004487057 H 0.0 **** 0.06
4669 H 50.784896418235036 13.417144139932429 79.94794124087576 H 0.0 **** 0.06
4670 H 51.79831075545374 11.996678447197871 80.30234154798777 H 0.0 **** 0.06
4671 C 40.35829732812954 105.19079523741803 82.76521946092384 C 0.0 **** -0.24
4672 H 41.27870999205027 105.48992604109787 82.26535455514261 H 0.0 **** 0.06
4673 H 39.50247942122212 105.58505597465803 82.21718762493003 H 0.0 **** 0.06
4674 H 40.35274129858652 105.58387779648555 83.78176308049942 H 0.0 **** 0.06
4675 H 40.29931285825887 104.10212262885774 82.79697736257924 H 0.0 **** 0.06
4676 C 88.42789007664422 102.34382724287155 77.57281044065144 C 0.0 **** -0.24
4677 H 87.89886099574585 101.5809737795035 78.1427433006855 H 0.0 **** 0.06
4678 H 88.27703731031976 103.31666052868508 78.04048397840451 H 0.0 **** 0.06
4679 H 88.04432326681216 102.36741432928414 76.55301004879676 H 0.0 **** 0.06
4680 H 89.49282827046187 102.11030610981163 77.55412164201795 H 0.0 **** 0.06
4681 C 10.757135558515515 100.64798774063692 31.213926450284646 C 0.0 **** -0.24
4682 H 11.604104364296788 101.33214673659124 31.26618561443206 H 0.0 **** 0.06
4683 H 10.51902284317407 100.44326315840384 30.169343297066803 H 0.0 **** 0.06
4684 H 9.894299934054018 101.10054029163146 31.702199491184388 H 0.0 **** 0.06
4685 H 11.01251210936114 99.71599832718402 31.718197466839115 H 0.0 **** 0.06
4686 C 65.45801416531015 48.609220763934104 59.62569890133906 C 0.0 **** -0.24
4687 H 65.91411649987862 48.1004427328167 60.47467667594843 H 0.0 **** 0.06
4688 H 66.2278334761047 48.8549113237184 58.89340924763625 H 0.0 **** 0.06
4689 H 64.97581883747313 49.52574785201722 59.96797882038123 H 0.0 **** 0.06
4690 H 64.71442142284752 47.95776135372651 59.16776099244697 H 0.0 **** 0.06
4691 C 45.346264763355975 68.99964216560127 70.52887734219964 C 0.0 **** -0.24
4692 H 45.53161502131255 69.59927754217958 71.42022543293675 H 0.0 **** 0.06
4693 H 45.11182181264047 67.97630755033923 70.82246802287126 H 0.0 **** 0.06
4694 H 46.23413817436753 69.00310637345378 69.8975133746187 H 0.0 **** 0.06
4695 H 44.50573127958691 69.42081568385382 69.97632590763362 H 0.0 **** 0.06
4696 C 52.17759490598141 44.571652569267144 36.61699654764078 C 0.0 **** -0.24
4697 H 51.67730785659748 44.45150663681926 35.65576943764907 H 0.0 **** 0.06
4698 H 53.24405769154072 44.72915730030621 36.45332879747113 H 0.0 **** 0.06
4699 H 52.029546601055756 43.6749341929077 37.21766409403443 H 0.0 **** 0.06
4700 H 51.75834910793745 45.43262583944448 37.13855070614693 H 0.0 **** 0.06
4701 C 42.31781256361671 12.220010325521201 23.153085737676577 C 0.0 **** -0.24
4702 H 42.53433834795527 13.214938452232616 23.54219024506034 H 0.0 **** 0.06
4703 H 41.49101573897207 12.28019724210779 22.44495207856238 H 0.0 **** 0.06
4704 H 42.04407784199964 11.55904712344227 23.975993809934266 H 0.0 **** 0.06
4705 H 43.20083119220118 11.827261497999615 22.648967529706 H 0.0 **** 0.06
4706 C 53.14175762699932 17.091897582145066 73.41124978616513 C 0.0 **** -0.24
4707 H 53.746040757602344 16.19142905139688 73.52013054273337 H 0.0 **** 0.06
4708 H 53.791211783091 17.940253484991388 73.19358420744321 H 0.0 **** 0.06
4709 H 52.59747633227397 17.27779754168145 74.33731662946371 H 0.0 **** 0.06
4710 H 52.433135389502326 16.956982818697725 72.59415172991628 H 0.0 **** 0.06
4711 C 57.98681701930093 12.141324570189083 0.8207386595339585 C 0.0 **** -0.24
4712 H 58.19933587210039 11.209080736743026 0.2979549051620154 H 0.0 **** 0.06
4713 H 56.94471044076556 12.150756328471543 1.1391308674647576 H 0.0 **** 0.06
4714 H 58.17022864995289 12.98245213404401 0.15176158349376578 H 0.0 **** 0.06
4715 H 58.63510432044461 12.22418327362811 1.6937018709892016 H 0.0 **** 0.06
4716 C 60.07279026461734 75.58049478958078 70.27935656624368 C 0.0 **** -0.24
4717 H 59.13365605631614 75.19882587462314 70.67925712970731 H 0.0 **** 0.06
4718 H 59.892372839712124 76.52608584836986 69.76713995812804 H 0.0 **** 0.06
4719 H 60.48735910281292 74.8582160013861 69.5752920868645 H 0.0 **** 0.06
4720 H 60.77764917921186 75.73816338021489 71.09502205058612 H 0.0 **** 0.06
4721 C 56.67131165967936 67.29964269403698 27.686584892009478 C 0.0 **** -0.24
4722 H 57.26980282369925 67.12238061155702 28.579702549299128 H 0.0 **** 0.06
4723 H 56.30802980126822 66.34751020295732 27.297691854366434 H 0.0 **** 0.06
4724 H 57.28287867240567 67.7917707427365 26.931215168395397 H 0.0 **** 0.06
4725 H 55.822389997424466 67.9361134112387 27.938604333396256 H 0.0 **** 0.06
4726 C 98.41028330282745 99.667961258231 11.852486303073624 C 0.0 **** -0.24
4727 H 97.6253419846995 98.91653708145668 11.773451557736466 H 0.0 **** 0.06
4728 H 99.1858757367765 99.31241469957354 12.531199608974006 H 0.0 **** 0.06
4729 H 97.98776865830791 100.59581979328186 12.238722817581175 H 0.0 **** 0.06
4730 H 98.84244042847484 99.84723444380995 10.867945264644883 H 0.0 **** 0.06
4731 C 51.62840081874742 45.357974802316136 27.97634932069829 C 0.0 **** -0.24
4732 H 51.3643249971181 45.733112974361916 26.98794303390899 H 0.0 **** 0.06
4733 H 51.44301360336314 46.13274236962215 28.720318073551795 H 0.0 **** 0.06
4734 H 52.68326831150361 45.08391224825672 27.990526568283883 H 0.0 **** 0.06
4735 H 51.02189445025414 44.48120489332416 28.205646741731258 H 0.0 **** 0.06
4736 C 27.661910617385644 54.249145961700805 5.96933473398451 C 0.0 **** -0.24
4737 H 26.898420818579353 53.49456497904464 5.779578087551542 H 0.0 **** 0.06
4738 H 28.648910969068396 53.82017853435232 5.790759679737121 H 0.0 **** 0.06
4739 H 27.59255133887612 54.58347595394673 7.004456684432014 H 0.0 **** 0.06
4740 H 27.50774896199286 55.09710307976266 5.301904869172432 H 0.0 **** 0.06
4741 C 75.982891826289 100.79796112234197 14.7322420383692 C 0.0 **** -0.24
4742 H 75.10467811303846 100.33541908187003 15.181513886412052 H 0.0 **** 0.06
4743 H 75.67034747173665 101.47885097392002 13.940372254096005 H 0.0 **** 0.06
4744 H 76.62692361461103 100.02513399565314 14.313591875933085 H 0.0 **** 0.06
4745 H 76.53042485577072 101.35452539113656 15.49353866311585 H 0.0 **** 0.06
4746 C 94.3965924585852 14.584086826077538 67.194817462095 C 0.0 **** -0.24
4747 H 95.06238526302262 13.928674995087661 67.7567738708707 H 0.0 **** 0.06
4748 H 93.7568504231139 13.984527073310232 66.54704979592552 H 0.0 **** 0.06
4749 H 94.98885891616533 15.269357544859972 66.58780162490066 H 0.0 **** 0.06
4750 H 93.77955369314138 15.15554481371555 67.88817208620424 H 0.0 **** 0.06
4751 C 3.028341307913151 72.77666818265538 81.58155054256 C 0.0 **** -0.24
4752 H 2.1941358003282474 72.09834244587061 81.75777774292143 H 0.0 **** 0.06
4753 H 3.4287969658787585 72.60779084656276 80.58225109287949 H 0.0 **** 0.06
4754 H 3.80874513831953 72.5934901684254 82.32145085538903 H 0.0 **** 0.06
4755 H 2.682546959261426 73.8069290392578 81.6665243562405 H 0.0 **** 0.06
4756 C 92.93391650220691 87.7185068961353 95.71562785620779 C 0.0 **** -0.24
4757 H 92.87560677319199 87.69681422168628 96.80468487681838 H 0.0 **** 0.06
4758 H 91.98441408303181 88.06310178020999 95.3074524354613 H 0.0 **** 0.06
4759 H 93.14839681303064 86.71571639494016 95.34428814939889 H 0.0 **** 0.06
4760 H 93.72966450455503 88.39688904046591 95.4082982619343 H 0.0 **** 0.06
4761 C 64.56726539564531 82.73450298600791 70.332668711563 C 0.0 **** -0.24
4762 H 63.71924663993016 82.69241420054408 71.01574220941393 H 0.0 **** 0.06
4763 H 65.15112284890424 83.63300192287181 70.53299058244323 H 0.0 **** 0.06
4764 H 64.20482496115773 82.75886787677054 69.30488030913173 H 0.0 **** 0.06
4765 H 65.19294777463992 81.85464094557777 70.47649491116644 H 0.0 **** 0.06
4766 C 13.290302572464057 16.83508369835074 50.439332621816334 C 0.0 **** -0.24
4767 H 14.011471230195866 16.11807913482765 50.833368143085465 H 0.0 **** 0.06
4768 H 13.349386672504409 16.849409894056738 49.35155530834578 H 0.0 **** 0.06
4769 H 13.515758806171704 17.82727815291648 50.829941565539684 H 0.0 **** 0.06
4770 H 12.28531003992093 16.544501434917837 50.744985454868356 H 0.0 **** 0.06
4771 C 78.67752452271964 52.69455182232676 105.63591858422672 C 0.0 **** -0.24
4772 H 78.01455447584348 53.5482102478629 105.77391017796339 H 0.0 **** 0.06
4773 H 78.09557006507288 51.833708551479106 105.30583737312111 H 0.0 **** 0.06
4774 H 79.16993179988037 52.46106499064135 106.57920836952457 H 0.0 **** 0.06
4775 H 79.42805094263554 52.93633202485913 104.8838194540424 H 0.0 **** 0.06
4776 C 69.77668470540557 47.78038954988641 56.12612253391987 C 0.0 **** -0.24
4777 H 68.82647034422251 48.132362787125935 56.527933710824755 H 0.0 **** 0.06
4778 H 69.59000963664329 47.054849289366175 55.33318083095756 H 0.0 **** 0.06
4779 H 70.35544598755591 47.30877715520098 56.92047563393038 H 0.0 **** 0.06
4780 H 70.33574422801537 48.62485587955438 55.721625525120714 H 0.0 **** 0.06
4781 C 100.49354443377455 31.73602289809159 92.69717662869367 C 0.0 **** -0.24
4782 H 100.70517703428719 32.597080212845526 92.06195326269587 H 0.0 **** 0.06
4783 H 99.65283279111745 31.17912493760791 92.28384348493266 H 0.0 **** 0.06
4784 H 100.24537501936709 32.0787754182238 93.70130377392692 H 0.0 **** 0.06
4785 H 101.37198082429194 31.0917124697759 92.73847196705235 H 0.0 **** 0.06
4786 C 18.014025099691793 32.97616720969369 78.4616165223233 C 0.0 **** -0.24
4787 H 17.889634893931742 33.98649351631378 78.85282821986398 H 0.0 **** 0.06
4788 H 17.61367320001912 32.25781732658917 79.17807697426005 H 0.0 **** 0.06
4789 H 19.073897302768643 32.776941134347815 78.30124002559069 H 0.0 **** 0.06
4790 H 17.479380437815593 32.884330197074874 77.51603269739648 H 0.0 **** 0.06
4791 C 25.436892889126113 50.93705277427074 40.753421585945404 C 0.0 **** -0.24
4792 H 26.39962366773696 51.12798409635923 40.278159095281175 H 0.0 **** 0.06
4793 H 25.379476688274877 51.4899970791991 41.691886694062156 H 0.0 **** 0.06
4794 H 25.335766929075277 49.8702843297221 40.953779628612715 H 0.0 **** 0.06
4795 H 24.634061629420557 51.260683561065605 40.09113103007701 H 0.0 **** 0.06
4796 C 60.61557838932549 78.0148489172188 84.98793152432705 C 0.0 **** -0.24
4797 H 60.84827549416872 77.23954644052591 85.71769985780165 H 0.0 **** 0.06
4798 H 59.67159164060749 77.77897737152922 84.49538061627976 H 0.0 **** 0.06
4799 H 61.410549806206944 78.0646325875105 84.24501991433027 H 0.0 **** 0.06
4800 H 60.529907837451105 78.97585584939635 85.49457332592192 H 0.0 **** 0.06
4801 C 105.08422074645262 80.87301464160583 41.74440608519632 C 0.0 **** -0.24
4802 H 105.95437036246108 80.43626171024309 41.255175882565936 H 0.0 **** 0.06
4803 H 105.20735604029034 81.95453385120842 41.80736351927459 H 0.0 **** 0.06
4804 H 104.98583014199514 80.45961544941244 42.748358834310295 H 0.0 **** 0.06
4805 H 104.18896090658822 80.64165810822772 41.16765686735209 H 0.0 **** 0.06
4806 C 39.82574382169729 88.86624214777255 87.67847618479219 C 0.0 **** -0.24
4807 H 40.376625224898596 88.05580245180998 88.15738949314323 H 0.0 **** 0.06
4808 H 38.7604479097062 88.7498608869302 87.88053256567684 H 0.0 **** 0.06
4809 H 39.99776795652714 88.83464830701098 86.60264477189254 H 0.0 **** 0.06
4810 H 40.16959118152493 89.82140730406215 88.07390148842366 H 0.0 **** 0.06
4811 C 72.69351261495873 58.36224331978369 28.89635688701179 C 0.0 **** -0.24
4812 H 72.3583550488514 59.06997116307292 29.65385960193916 H 0.0 **** 0.06
4813 H 72.21990983449078 57.39524184173868 29.066487030723238 H 0.0 **** 0.06
4814 H 73.77598319506214 58.251801613975346 28.955726498161454 H 0.0 **** 0.06
4815 H 72.42010029092583 58.731154015699815 27.90784977937099 H 0.0 **** 0.06
4816 C 53.999456983024146 49.72133250678661 95.54823203404088 C 0.0 **** -0.24
4817 H 52.9225484455134 49.88434516695955 95.60075465765111 H 0.0 **** 0.06
4818 H 54.51313021500505 50.682935376510216 95.56556618957356 H 0.0 **** 0.06
4819 H 54.24252827989778 49.19626250463031 94.62406615074964 H 0.0 **** 0.06
4820 H 54.31815964132602 49.123011935021395 96.40137316205863 H 0.0 **** 0.06
4821 C 69.71196249170723 5.665609155388097 13.470722349489034 C 0.0 **** -0.24
4822 H 70.18707310220984 5.430307620424301 14.423492960907357 H 0.0 **** 0.06
4823 H 70.19308316620973 5.097207414802696 12.673880376345302 H 0.0 **** 0.06
4824 H 69.81353283133038 6.731888724958267 13.268477309793923 H 0.0 **** 0.06
4825 H 68.65426577676266 5.403968442980656 13.517375985324051 H 0.0 **** 0.06
4826 C 40.86277581114905 100.6616849261203 37.169961462286665 C 0.0 **** -0.24
4827 H 40.408071474723556 99.97363309961163 36.456822354511786 H 0.0 **** 0.06
4828 H 40.23973096240243 101.55244500387376 37.26148957653609 H 0.0 **** 0.06
4829 H 41.85477898812323 100.94574488567162 36.819499881466385 H 0.0 **** 0.06
4830 H 40.946102390714486 100.1751978923219 38.141774073409835 H 0.0 **** 0.06
4831 C 62.54042185265354 90.77535076786258 94.6934222910441 C 0.0 **** -0.24
4832 H 62.89121340684176 91.69697142200856 94.22859933450962 H 0.0 **** 0.06
4833 H 63.14214001205943 89.93840365405315 94.33883591141543 H 0.0 **** 0.06
4834 H 61.495730363809116 90.61050201285434 94.42947287542647 H 0.0 **** 0.06
4835 H 62.633430093072775 90.85702086100372 95.77649393338515 H 0.0 **** 0.06
4836 C 13.143093617880936 91.22094073909557 15.006264496784524 C 0.0 **** -0.24
4837 H 12.845253775545189 91.74393275686229 15.914646823794271 H 0.0 **** 0.06
4838 H 14.101967070308717 91.61045336907875 14.662198533977346 H 0.0 **** 0.06
4839 H 12.389316029642202 91.37585163734208 14.234144247319605 H 0.0 **** 0.06
4840 H 13.236748249776667 90.15530111083245 15.214198804997253 H 0.0 **** 0.06
4841 C 42.46534886496843 35.49919345757914 94.16120943703334 C 0.0 **** -0.24
4842 H 41.51319925012301 35.36467414216011 94.67507362277263 H 0.0 **** 0.06
4843 H 42.558109677874455 34.755204968807845 93.36911327266091 H 0.0 **** 0.06
4844 H 43.28151989348648 35.378129806765315 94.87254978581063 H 0.0 **** 0.06
4845 H 42.505012968870474 36.49922756713394 93.72770359696563 H 0.0 **** 0.06
4846 C 49.616279809666395 60.12634563783448 6.118303030204686 C 0.0 **** -0.24
4847 H 48.846932470907376 60.50541383867808 6.791391956961689 H 0.0 **** 0.06
4848 H 49.650036333316905 59.03885744099141 6.180097871809153 H 0.0 **** 0.06
4849 H 50.584308426707906 60.53732536306168 6.406386368009379 H 0.0 **** 0.06
4850 H 49.38374386516966 60.42589475196484 5.096073065795437 H 0.0 **** 0.06
4851 C 57.45071643097751 82.0066413317313 82.68920476657632 C 0.0 **** -0.24
4852 H 56.519997055028455 81.44058397329962 82.71851671950299 H 0.0 **** 0.06
4853 H 57.71127001954778 82.32920806564518 83.6980537697066 H 0.0 **** 0.06
4854 H 57.324882375560634 82.87993747294537 82.04869061622321 H 0.0 **** 0.06
4855 H 58.24671627377322 81.37683581503518 82.29155796087258 H 0.0 **** 0.06
4856 C 60.84857662424429 55.09664336447116 12.175664599059928 C 0.0 **** -0.24
4857 H 59.949861948738715 55.70602041826504 12.071398936603657 H 0.0 **** 0.06
4858 H 61.729495949928605 55.722592352615436 12.03567644930041 H 0.0 **** 0.06
4859 H 60.83971132110071 54.306375966694134 11.42501251411619 H 0.0 **** 0.06
4860 H 60.87161988859265 54.65253883065748 13.17063990598632 H 0.0 **** 0.06
4861 C 44.50477433886107 80.10522071071122 5.192164565899279 C 0.0 **** -0.24
4862 H 44.3133788432271 80.76618702673413 6.03784300787831 H 0.0 **** 0.06
4863 H 43.95318818722228 80.4614944668214 4.3215662187054695 H 0.0 **** 0.06
4864 H 44.18141617714889 79.09527095892702 5.439691535521124 H 0.0 **** 0.06
4865 H 45.57216412550838 80.10203533813097 4.969776086918257 H 0.0 **** 0.06
4866 C 79.66022523579204 98.97697698141819 69.39253719355474 C 0.0 **** -0.24
4867 H 79.72052648494238 98.06448799879084 68.79862190928867 H 0.0 **** 0.06
4868 H 78.65587068556792 99.07465187831532 69.80635396963424 H 0.0 **** 0.06
4869 H 79.87920945639976 99.83696449212711 68.76100966480851 H 0.0 **** 0.06
4870 H 80.38468674211805 98.92855624548835 70.20592006568899 H 0.0 **** 0.06
4871 C 85.4117242207345 47.55861921927959 21.17930982494309 C 0.0 **** -0.24
4872 H 85.59845655801178 46.55953742495122 21.572800992517102 H 0.0 **** 0.06
4873 H 85.81609756551742 47.63230920514497 20.169352038255454 H 0.0 **** 0.06
4874 H 85.89502002898149 48.29760433943369 21.818354313887994 H 0.0 **** 0.06
4875 H 84.33811630465982 47.74495721012666 21.155563360788676 H 0.0 **** 0.06
4876 C 8.305940988928047 93.04859749486957 80.11645789483075 C 0.0 **** -0.24
4877 H 7.465362506322636 93.7332779393752 80.00731957681904 H 0.0 **** 0.06
4878 H 8.546882028239187 92.61126978849028 79.14696026607291 H 0.0 **** 0.06
4879 H 8.040940819572961 92.25609399319595 80.81667060504816 H 0.0 **** 0.06
4880 H 9.170578601577347 93.59374825841678 80.49488113138287 H 0.0 **** 0.06
4881 C 76.6157304176098 94.46515340983035 24.029027624625883 C 0.0 **** -0.24
4882 H 77.03210548098092 94.0132492550531 23.129001443266105 H 0.0 **** 0.06
4883 H 75.8798047031651 95.22007163480329 23.74958068571351 H 0.0 **** 0.06
4884 H 77.41590219459474 94.93287107379177 24.60389116137199 H 0.0 **** 0.06
4885 H 76.13590396713514 93.69521434892494 24.63277682907119 H 0.0 **** 0.06
4886 C 62.2733861585462 45.222030774691746 104.87631281082923 C 0.0 **** -0.24
4887 H 61.79583181203884 46.0831679943019 105.3452054484732 H 0.0 **** 0.06
4888 H 61.56046730566811 44.39972407207381 104.81685612477051 H 0.0 **** 0.06
4889 H 63.13359186414186 44.91659224116469 105.47112547464997 H 0.0 **** 0.06
4890 H 62.60227652514419 45.491470233780944 103.87235900763213 H 0.0 **** 0.06
4891 C 69.70102762819084 104.58082508203901 88.6490517545858 C 0.0 **** -0.24
4892 H 69.31417858707977 103.88519968426729 87.90383442443319 H 0.0 **** 0.06
4893 H 68.97499144604473 105.3777093696275 88.81265994311619 H 0.0 **** 0.06
4894 H 70.6385720392285 105.008956658171 88.29372435846287 H 0.0 **** 0.06
4895 H 69.87581986318474 104.04990800732821 89.58444921502488 H 0.0 **** 0.06
4896 C 67.11430520130708 63.53695273891407 42.18508828710037 C 0.0 **** -0.24
4897 H 66.67462665941278 62.54186178974618 42.125051256327026 H 0.0 **** 0.06
4898 H 66.88160693610544 64.09316307591439 41.276646039560205 H 0.0 **** 0.06
4899 H 68.19637323486106 63.45024479434085 42.29079674306965 H 0.0 **** 0.06
4900 H 66.70653032660655 64.06360818143997 43.047423700553594 H 0.0 **** 0.06
4901 C 34.59332519525054 23.443484180834844 51.53834123496338 C 0.0 **** -0.24
4902 H 33.85915266086363 23.964521925941295 50.922617973775175 H 0.0 **** 0.06
4903 H 35.58824263320491 23.586783041290115 51.116350177574645 H 0.0 **** 0.06
4904 H 34.35824108797851 22.3796016896186 51.561258328258134 H 0.0 **** 0.06
4905 H 34.566120031018954 23.84394036870259 52.5518018571635 H 0.0 **** 0.06
4906 C 25.186062305027832 17.049176092920135 30.998315043676513 C 0.0 **** -0.24
4907 H 25.903531778719866 16.326733836274997 30.608963717029013 H 0.0 **** 0.06
4908 H 25.30828394885947 17.998837362557367 30.47598744541179 H 0.0 **** 0.06
4909 H 25.36012932974262 17.19561734087371 32.064474672741056 H 0.0 **** 0.06
4910 H 24.173648207810658 16.677151013167503 30.84260145602059 H 0.0 **** 0.06
4911 C 57.96521753112262 92.70396631754979 58.40292282702405 C 0.0 **** -0.24
4912 H 57.54776205300004 93.58285178821295 57.91100922946947 H 0.0 **** 0.06
4913 H 57.170104030277344 92.16383564525525 58.91687426873612 H 0.0 **** 0.06
4914 H 58.7196132740504 93.01578255263452 59.12513982929039 H 0.0 **** 0.06
4915 H 58.42309620534604 92.05375622802815 57.65733267355315 H 0.0 **** 0.06
4916 C 10.185337144204013 88.57949437457063 72.48606970164752 C 0.0 **** -0.24
4917 H 10.232432274222163 89.45629304168028 73.13238686974137 H 0.0 **** 0.06
4918 H 10.501263598489246 88.85291631734157 71.47964305526568 H 0.0 **** 0.06
4919 H 9.161524099605899 88.20443678568326 72.45742647004874 H 0.0 **** 0.06
4920 H 10.844506446898691 87.80405600643842 72.87663709193652 H 0.0 **** 0.06
4921 C 98.24953259289387 60.11955186377388 15.93822123613236 C 0.0 **** -0.24
4922 H 97.70372867549003 60.846995798710424 16.53924629550031 H 0.0 **** 0.06
4923 H 98.72104359366793 59.386909210716304 16.593958890485197 H 0.0 **** 0.06
4924 H 99.01454371656322 60.63151810793481 15.354676685710892 H 0.0 **** 0.06
4925 H 97.55792611176955 59.61315959471287 15.265268020750533 H 0.0 **** 0.06
4926 C 61.325770446397854 64.06817554327311 35.735469427863784 C 0.0 **** -0.24
4927 H 61.71688910331878 63.05073485059094 35.71866597671717 H 0.0 **** 0.06
4928 H 60.396554756818176 64.0900084751159 36.30653625548904 H 0.0 **** 0.06
4929 H 61.13348662736152 64.40028684690022 34.715910375661736 H 0.0 **** 0.06
4930 H 62.05527410547066 64.72967493663533 36.20187979877886 H 0.0 **** 0.06
4931 C 96.81301644035167 9.740386855579175 97.35977978363123 C 0.0 **** -0.24
4932 H 95.72919601971195 9.748021876783938 97.46961442764871 H 0.0 **** 0.06
4933 H 97.24849454473194 10.509590691566515 97.9987853059436 H 0.0 **** 0.06
4934 H 97.07443318999172 9.939960949592631 96.32073447345701 H 0.0 **** 0.06
4935 H 97.20079286416546 8.763699696259991 97.65043314393395 H 0.0 **** 0.06
4936 C 5.7455416210763275 59.824397953956044 45.559896622350294 C 0.0 **** -0.24
4937 H 6.434092726407698 60.619324206498604 45.84821308608031 H 0.0 **** 0.06
4938 H 6.230334492666856 58.857876508363596 45.693612090728124 H 0.0 **** 0.06
4939 H 5.465340401786776 59.94950510208791 44.51389222748173 H 0.0 **** 0.06
4940 H 4.853053982367243 59.87389572377426 46.183152959631144 H 0.0 **** 0.06
4941 C 101.69227615839944 3.4074866594409485 33.60871669283941 C 0.0 **** -0.24
4942 H 102.1247280576506 4.330928598556966 33.22342452821371 H 0.0 **** 0.06
4943 H 101.31696248217756 3.576958352424029 34.61883934929298 H 0.0 **** 0.06
4944 H 102.4563866424335 2.6298589927563967 33.63065139430441 H 0.0 **** 0.06
4945 H 100.87207413034534 3.093575294193755 32.9633710655618 H 0.0 **** 0.06
4946 C 38.613120181248746 55.369230634276704 38.43103864840603 C 0.0 **** -0.24
4947 H 39.405182485230256 55.13622387792937 39.14373769715655 H 0.0 **** 0.06
4948 H 38.99942750437904 56.04409423060575 37.666904165802094 H 0.0 **** 0.06
4949 H 37.784859359181894 55.84811292581917 38.95362498990258 H 0.0 **** 0.06
4950 H 38.265065567171575 54.44978222387341 37.96165260701534 H 0.0 **** 0.06
4951 C 11.726306301060362 6.057855141199985 15.11020335690813 C 0.0 **** -0.24
4952 H 10.97785742952479 5.296496759196625 15.330408758112597 H 0.0 **** 0.06
4953 H 12.627330746473277 5.858976759055558 15.689770443621654 H 0.0 **** 0.06
4954 H 11.333866366626111 7.039908491696588 15.37522005094759 H 0.0 **** 0.06
4955 H 11.964173910057 6.0363747269421335 14.046792669716382 H 0.0 **** 0.06
4956 C 52.09276973414274 92.56713139576735 41.14476795866749 C 0.0 **** -0.24
4957 H 52.17661312331559 92.97061384333941 40.1356233147321 H 0.0 **** 0.06
4958 H 52.967900703183396 92.85877419807261 41.72630988847378 H 0.0 **** 0.06
4959 H 52.03377678591486 91.48043479985736 41.09770439745374 H 0.0 **** 0.06
4960 H 51.19335377478028 92.96052721315036 41.618841145418244 H 0.0 **** 0.06
4961 C 26.327693349153222 60.12430408378708 81.69408405674797 C 0.0 **** -0.24
4962 H 25.558331787781373 60.475915477757326 81.00624108834747 H 0.0 **** 0.06
4963 H 27.24709784351396 59.93001790037397 81.14155896890853 H 0.0 **** 0.06
4964 H 25.99215753594807 59.20666080044509 82.17603236908677 H 0.0 **** 0.06
4965 H 26.512973575300126 60.88573069761992 82.45119000723471 H 0.0 **** 0.06
4966 C 0.8655734733308549 54.227701223411145 71.66990976662773 C 0.0 **** -0.24
4967 H 0.25299127913436337 55.11743994898802 71.81469841075238 H 0.0 **** 0.06
4968 H 1.149641022862113 54.14993516330634 70.62020037882678 H 0.0 **** 0.06
4969 H 0.29767049290126124 53.344042792556934 71.9599091810166 H 0.0 **** 0.06
4970 H 1.762679551932834 54.30135086127751 72.28564930546948 H 0.0 **** 0.06
4971 C 5.71818190752019 99.8442141772917 53.11311939888253 C 0.0 **** -0.24
4972 H 5.1858521337107515 99.17035679375485 52.4431814452505 H 0.0 **** 0.06
4973 H 5.812263561279416 99.38118303977946 54.09613393733656 H 0.0 **** 0.06
4974 H 5.164370276993443 100.77932965653841 53.20378628335857 H 0.0 **** 0.06
4975 H 6.710869120537852 100.04756287684037 52.71083326406659 H 0.0 **** 0.06
4976 C 60.47559657842541 24.98288147899146 0.9677056795673025 C 0.0 **** -0.24
4977 H 60.75866796970328 23.96947830507588 0.6809072135440601 H 0.0 **** 0.06
4978 H 60.406092138313426 25.606243493300383 0.07682039376368266 H 0.0 **** 0.06
4979 H 61.22897884593161 25.3924847705199 1.641711674210569 H 0.0 **** 0.06
4980 H 59.51024620014633 24.960587310811064 1.4731097872090686 H 0.0 **** 0.06
4981 C 44.50881541337628 86.91110669664982 54.9971003092586 C 0.0 **** -0.24
4982 H 45.355678409717314 86.24055289447284 54.85316857202827 H 0.0 **** 0.06
4983 H 43.64490547576571 86.52596158828231 54.454053681104014 H 0.0 **** 0.06
4984 H 44.76286739300508 87.90213508269352 54.62130112370651 H 0.0 **** 0.06
4985 H 44.27200180454531 86.97450690301858 56.05928647311846 H 0.0 **** 0.06
4986 C 66.73666878512338 22.997361336606996 43.09801306260948 C 0.0 **** -0.24
4987 H 67.11494835046854 23.985256698338148 43.36163979066535 H 0.0 **** 0.06
4988 H 67.01305378352636 22.283763582044493 43.875058328217996 H 0.0 **** 0.06
4989 H 67.1678998091373 22.685211885723426 42.14649676598597 H 0.0 **** 0.06
4990 H 65.651515800018 23.036343842276082 43.009939161752726 H 0.0 **** 0.06
4991 C 83.83615506618318 33.4942223917424 66.26346778455758 C 0.0 **** -0.24
4992 H 84.61852910447945 34.25287997083715 66.24967510473874 H 0.0 **** 0.06
4993 H 83.10450684510295 33.73976040334152 67.03372923982744 H 0.0 **** 0.06
4994 H 84.27802558389348 32.52080129509549 66.47857837479819 H 0.0 **** 0.06
4995 H 83.34405172657372 33.46231112491391 65.29067811253907 H 0.0 **** 0.06
4996 C 84.92224205749586 101.87434313703801 49.44568697701192 C 0.0 **** -0.24
4997 H 85.54944185246283 102.31848192366286 50.21838410016505 H 0.0 **** 0.06
4998 H 84.06562528319233 101.38439798788443 49.909321738426286 H 0.0 **** 0.06
4999 H 85.50057909859785 101.14011251380903 48.885485822575504 H 0.0 **** 0.06
5000 H 84.57332199573038 102.65438012279562 48.76955624688077 H 0.0 **** 0.06
5001 C 103.32470757328636 63.31957495331508 100.35430524638242 C 0.0 **** -0.24
5002 H 102.96777452772992 64.12765898093173 100.99331521632108 H 0.0 **** 0.06
5003 H 102.5460433626335 62.561892508930526 100.25891063347024 H 0.0 **** 0.06
5004 H 104.21535788404339 62.8725621076471 100.79662105611303 H 0.0 **** 0.06
5005 H 103.56826233803793 63.71612546456386 99.36861539743727 H 0.0 **** 0.06
5006 C 75.53755709326296 26.860337249660933 86.74005729553598 C 0.0 **** -0.24
5007 H 75.5615643043684 26.910591564484974 87.82837289254222 H 0.0 **** 0.06
5008 H 76.44493782825474 26.374800615594065 86.37970451760137 H 0.0 **** 0.06
5009 H 75.47765782271541 27.869696215647053 86.33121095638786 H 0.0 **** 0.06
5010 H 74.66670615844002 26.286870480434523 86.42141132834135 H 0.0 **** 0.06
5011 C 42.23301648447591 23.39893166932012 44.86884699655397 C 0.0 **** -0.24
5012 H 43.222963456805275 23.52355084974148 45.3098638300705 H 0.0 **** 0.06
5013 H 41.96498352163309 24.30055825076083 44.318510259124395 H 0.0 **** 0.06
5014 H 41.503491372063564 23.22331846574243 45.65859173872522 H 0.0 **** 0.06
5015 H 42.24472876390476 22.547949202093402 44.18866443467087 H 0.0 **** 0.06
5016 C 0.26260686479940887 53.72867141098857 20.587735777138334 C 0.0 **** -0.24
5017 H 1.277495795744926 53.37690200890867 20.774761126475696 H 0.0 **** 0.06
5018 H 0.07609300155212395 53.74474551497394 19.513587303574354 H 0.0 **** 0.06
5019 H 0.1473904484790296 54.734357394730466 20.99189612056918 H 0.0 **** 0.06
5020 H -0.44811315894361314 53.05862123515834 21.070475326069612 H 0.0 **** 0.06
5021 C 73.30564820326776 46.01053076092464 29.710242052572625 C 0.0 **** -0.24
5022 H 73.2328429422999 46.69640938286239 28.86500556985723 H 0.0 **** 0.06
5023 H 73.96237030553169 45.18081111414396 29.44853591908739 H 0.0 **** 0.06
5024 H 72.31473438389256 45.628303471928106 29.95444645109984 H 0.0 **** 0.06
5025 H 73.71411640118316 46.53968192569409 30.571453120283593 H 0.0 **** 0.06
5026 C 53.165587638441934 26.451343136115327 70.36058312646334 C 0.0 **** -0.24
5027 H 53.032426997291 26.524510754732177 69.28074262976469 H 0.0 **** 0.06
5028 H 54.22322968771175 26.31552758397683 70.5867161462809 H 0.0 **** 0.06
5029 H 52.600226039108065 25.59972496283015 70.73905037368604 H 0.0 **** 0.06
5030 H 52.806568196827016 27.36543365877361 70.83236508354489 H 0.0 **** 0.06
5031 C 63.363269927972055 13.892330561542394 67.2462277273099 C 0.0 **** -0.24
5032 H 62.49695977558429 14.066453806402151 66.60875813568558 H 0.0 **** 0.06
5033 H 63.37717526549602 14.628017771590677 68.04998866706487 H 0.0 **** 0.06
5034 H 64.2744983958371 13.98437009294544 66.65376490957294 H 0.0 **** 0.06
5035 H 63.306592717325714 12.88994341842482 67.67134823351518 H 0.0 **** 0.06
5036 C 105.08245806043143 0.268808159940221 64.70391330769792 C 0.0 **** -0.24
5037 H 104.83149338909206 -0.7915368644118672 64.6824457672814 H 0.0 **** 0.06
5038 H 104.77800105390389 0.7342363474220832 63.7658817025623 H 0.0 **** 0.06
5039 H 106.15849454253492 0.3845586588161325 64.83506983509537 H 0.0 **** 0.06
5040 H 104.56144246968924 0.7477057443145725 65.5335852993009 H 0.0 **** 0.06
5041 C 106.16884586204125 10.00403366769865 90.89312261506221 C 0.0 **** -0.24
5042 H 106.23046556940915 10.26160380485527 91.94996332916742 H 0.0 **** 0.06
5043 H 106.88257190097471 9.211518039026998 90.6706146916923 H 0.0 **** 0.06
5044 H 106.4005704679918 10.881996568028512 90.29108481930807 H 0.0 **** 0.06
5045 H 105.1601810020297 9.661149290558114 90.66149093427605 H 0.0 **** 0.06
5046 C 7.169324757615588 25.461093772109482 56.89071430200289 C 0.0 **** -0.24
5047 H 7.264912078792655 26.001388238231403 55.94912647285216 H 0.0 **** 0.06
5048 H 6.923658767602133 24.41791477218268 56.687739969533254 H 0.0 **** 0.06
5049 H 6.376596636577419 25.91142824512771 57.48914036464106 H 0.0 **** 0.06
5050 H 8.111011192790608 25.51237307657503 57.4364896769018 H 0.0 **** 0.06
5051 C 33.72722892691925 89.7186200622686 65.38890500626093 C 0.0 **** -0.24
5052 H 32.8063824252404 90.1573302424079 65.77396971894893 H 0.0 **** 0.06
5053 H 34.52461216444746 89.84503395509708 66.12105266583723 H 0.0 **** 0.06
5054 H 34.00422153859134 90.21641824070211 64.45874542393341 H 0.0 **** 0.06
5055 H 33.571591012433004 88.6568831292247 65.1991783493919 H 0.0 **** 0.06
5056 C 52.916549557687745 48.19155319345879 50.81229850663286 C 0.0 **** -0.24
5057 H 53.55593228918403 47.85614253768935 49.99600560524917 H 0.0 **** 0.06
5058 H 53.524995770219874 48.3760824988984 51.69797953056434 H 0.0 **** 0.06
5059 H 52.17599264699783 47.422066769384315 51.03384507553082 H 0.0 **** 0.06
5060 H 52.408500344988994 49.11135157308627 50.52239912863095 H 0.0 **** 0.06
5061 C 28.33899817027816 5.8556557903924755 95.41016784500333 C 0.0 **** -0.24
5062 H 29.396801205961538 5.606141906885057 95.48449283167533 H 0.0 **** 0.06
5063 H 27.740818526590715 5.0135728750288 95.76124231041788 H 0.0 **** 0.06
5064 H 28.087683812745013 6.072121877555489 94.37104354442943 H 0.0 **** 0.06
5065 H 28.128754842782087 6.732000348255511 96.02477890128905 H 0.0 **** 0.06
5066 C 14.177813484984753 63.91435838065169 21.187936926638756 C 0.0 **** -0.24
5067 H 14.601041467478922 63.22819906537748 20.45468720611821 H 0.0 **** 0.06
5068 H 13.227576213267525 64.30148857126713 20.817546405641522 H 0.0 **** 0.06
5069 H 14.868119424937348 64.74116120269429 21.352820138586225 H 0.0 **** 0.06
5070 H 14.012468493656087 63.385241425079386 22.12667864221818 H 0.0 **** 0.06
5071 C 99.72959921471474 87.66767291515418 5.322110622988646 C 0.0 **** -0.24
5072 H 98.99718505302488 88.45111466577009 5.515600171972281 H 0.0 **** 0.06
5073 H 99.45968639321498 87.13529751443917 4.4091926189293105 H 0.0 **** 0.06
5074 H 99.7459308137182 86.96988191318064 6.159364292398337 H 0.0 **** 0.06
5075 H 100.71739581205385 88.11455673890282 5.202969914148298 H 0.0 **** 0.06
5076 C 17.779757810791367 92.30731121768537 66.59111467797072 C 0.0 **** -0.24
5077 H 18.049978630924226 91.35283601442063 67.04360725661115 H 0.0 **** 0.06
5078 H 18.255790701248234 93.11787407506841 67.14348165520425 H 0.0 **** 0.06
5079 H 16.697581049029562 92.43131210438861 66.62527492998697 H 0.0 **** 0.06
5080 H 18.116320588937835 92.3263721972059 65.55507277105761 H 0.0 **** 0.06
5081 C 25.1893468118015 40.60094574763178 0.27625361627760014 C 0.0 **** -0.24
5082 H 24.821125285769256 40.93241702284621 1.2474412576100917 H 0.0 **** 0.06
5083 H 26.19940762777273 40.98172510534428 0.1220460380647097 H 0.0 **** 0.06
5084 H 24.534052986853254 40.97815774663516 -0.5090111982809731 H 0.0 **** 0.06
5085 H 25.20249074985594 39.51116366475779 0.24648815355561737 H 0.0 **** 0.06
5086 C 37.13732864296041 46.293331723205654 0.6936410526744119 C 0.0 **** -0.24
5087 H 37.8642263696629 45.57543737774262 0.3138370158515702 H 0.0 **** 0.06
5088 H 37.3594962452611 47.282218776920786 0.2920047991151642 H 0.0 **** 0.06
5089 H 37.19138084422949 46.322441792233576 1.781840787815164 H 0.0 **** 0.06
5090 H 36.135081317383566 45.99311037769428 0.38735986664409916 H 0.0 **** 0.06
5091 C 49.04348587910175 38.64009984991276 4.795835805762096 C 0.0 **** -0.24
5092 H 48.968467682623384 37.67093634566816 4.301436031956484 H 0.0 **** 0.06
5093 H 50.02539071138966 39.07263266674164 4.599343949581595 H 0.0 **** 0.06
5094 H 48.912536620789524 38.510810604247716 5.870733635173565 H 0.0 **** 0.06
5095 H 48.269882567980574 39.304441946154306 4.4120804717258295 H 0.0 **** 0.06
5096 C 16.428771858178045 89.68686617892034 99.64181653137939 C 0.0 **** -0.24
5097 H 17.321731183562566 89.07926619327841 99.79334762719945 H 0.0 **** 0.06
5098 H 16.482747905326892 90.17594373479369 98.66963887363706 H 0.0 **** 0.06
5099 H 16.366390576187534 90.44156270890059 100.42626504052124 H 0.0 **** 0.06
5100 H 15.545361881827972 89.0498856284709 99.6804724305977 H 0.0 **** 0.06
5101 C 7.3002102187078695 46.944339928983766 85.74546950001073 C 0.0 **** -0.24
5102 H 7.389865193828493 48.012856234236864 85.54678469806198 H 0.0 **** 0.06
5103 H 7.350327026285207 46.39486075330976 84.80583041280232 H 0.0 **** 0.06
5104 H 6.347121207133522 46.745229104968786 86.2342228814241 H 0.0 **** 0.06
5105 H 8.11503258979363 46.62766042949167 86.39613245543286 H 0.0 **** 0.06
5106 C 10.847648749588188 61.79425714437647 91.13523789720536 C 0.0 **** -0.24
5107 H 10.081497017894321 62.39322772886297 91.62763862353067 H 0.0 **** 0.06
5108 H 10.5173872111247 61.53868108559399 90.12849865934076 H 0.0 **** 0.06
5109 H 11.017234264689947 60.88087003858922 91.70574072281005 H 0.0 **** 0.06
5110 H 11.774587305616393 62.36565633185853 91.0791698684767 H 0.0 **** 0.06
5111 C 90.97713233746921 47.096575425411515 51.655881072672514 C 0.0 **** -0.24
5112 H 91.50843000968419 47.15026407229641 52.60619419316052 H 0.0 **** 0.06
5113 H 89.90253203598269 47.13915586148886 51.83779830132792 H 0.0 **** 0.06
5114 H 91.22373874689126 46.16027635759252 51.15482412847598 H 0.0 **** 0.06
5115 H 91.27303649138346 47.93521898608731 51.02656528335663 H 0.0 **** 0.06
5116 C 37.77890376969782 78.26496255038259 99.51730954756806 C 0.0 **** -0.24
5117 H 36.90622198090975 78.41226695272168 100.15481773487187 H 0.0 **** 0.06
5118 H 38.293981307577354 79.21639772335327 99.38399053795496 H 0.0 **** 0.06
5119 H 37.459290800158755 77.88496108108625 98.54728320113401 H 0.0 **** 0.06
5120 H 38.45300698424296 77.5484549682613 99.98497115027021 H 0.0 **** 0.06
5121 C 70.06906565419683 35.558056202240124 8.300932231979075 C 0.0 **** -0.24
5122 H 71.02715330982562 35.71715843274151 8.797008121822046 H 0.0 **** 0.06
5123 H 69.40964547947289 36.40176197013977 8.507623734462328 H 0.0 **** 0.06
5124 H 69.61481928648067 34.640726240189736 8.674479620885862 H 0.0 **** 0.06
5125 H 70.22692056624868 35.47424865728715 7.226042100905289 H 0.0 **** 0.06
5126 C 9.04141892159123 87.47873883590009 57.614592366697 C 0.0 **** -0.24
5127 H 9.91251741673156 87.10108722014962 58.15004579889486 H 0.0 **** 0.06
5128 H 9.24787504011968 87.48498622399325 56.543982921675116 H 0.0 **** 0.06
5129 H 8.820532361405824 88.49213037700986 57.94869921482964 H 0.0 **** 0.06
5130 H 8.184878340596455 86.83504190728694 57.81588872546377 H 0.0 **** 0.06
5131 C 93.1097771817766 29.01385468511362 6.0720431961182015 C 0.0 **** -0.24
5132 H 93.75688381890382 29.306247469434894 6.899037857414115 H 0.0 **** 0.06
5133 H 93.6714113027372 28.392878184674963 5.374066110102163 H 0.0 **** 0.06
5134 H 92.75196296659982 29.90632053955654 5.5590038443628345 H 0.0 **** 0.06
5135 H 92.25970848283342 28.449691450940975 6.458342112277592 H 0.0 **** 0.06
5136 C 70.34375255119048 32.03047066501597 100.22714290676848 C 0.0 **** -0.24
5137 H 69.78856911120874 31.34718133773754 100.86947205285897 H 0.0 **** 0.06
5138 H 71.19640101834361 32.43161370072869 100.77543168472877 H 0.0 **** 0.06
5139 H 69.69236597340247 32.84870476012105 99.91936828281844 H 0.0 **** 0.06
5140 H 70.69690629332345 31.4943684590163 99.34639972403129 H 0.0 **** 0.06
5141 C 94.50702402512547 73.937351551473 19.013581889689675 C 0.0 **** -0.24
5142 H 93.84106465963012 74.76818195333828 18.783022525264016 H 0.0 **** 0.06
5143 H 94.10197145106147 73.01873502868324 18.590308034244117 H 0.0 **** 0.06
5144 H 94.59556485060833 73.83225065734763 20.095318953281776 H 0.0 **** 0.06
5145 H 95.491419706144 74.13130882270895 18.586066406654112 H 0.0 **** 0.06
5146 C 39.563576683520466 65.38342499372914 93.0397039882804 C 0.0 **** -0.24
5147 H 39.21247405353887 64.78078966256344 93.8775502290317 H 0.0 **** 0.06
5148 H 39.19608034443121 66.40413687005504 93.14820947262032 H 0.0 **** 0.06
5149 H 39.192724012285225 64.95979151675489 92.10650161489201 H 0.0 **** 0.06
5150 H 40.65430186490386 65.38957726815114 93.02797725546375 H 0.0 **** 0.06
5151 C 7.2569475123425775 90.72962308202759 92.79800260667635 C 0.0 **** -0.24
5152 H 7.753797247673731 90.23385212809401 93.63226589480978 H 0.0 **** 0.06
5153 H 7.705669526542522 90.40024181970574 91.8602023608885 H 0.0 **** 0.06
5154 H 7.371145135502758 91.80886267736004 92.89578027179128 H 0.0 **** 0.06
5155 H 6.196651906835683 90.47471994934584 92.8027334454364 H 0.0 **** 0.06
5156 C 100.0105119590857 56.80599625063386 60.78071099324592 C 0.0 **** -0.24
5157 H 99.34364170940495 57.19332482986203 60.010807544169694 H 0.0 **** 0.06
5158 H 101.04284849794459 57.03674087788735 60.517223027806764 H 0.0 **** 0.06
5159 H 99.88831330152698 55.724439432274764 60.85702059534937 H 0.0 **** 0.06
5160 H 99.76643481411242 57.267176427255876 61.73759494094773 H 0.0 **** 0.06
5161 C 25.31170145304954 85.3650785560105 78.10646958911315 C 0.0 **** -0.24
5162 H 24.76196515341719 85.9558987595185 77.37384540761757 H 0.0 **** 0.06
5163 H 25.910427273512667 84.61354418247029 77.59143638191608 H 0.0 **** 0.06
5164 H 24.6068059117054 84.8714621260342 78.77668811911467 H 0.0 **** 0.06
5165 H 25.964769269518115 86.01844572759936 78.68403813169616 H 0.0 **** 0.06
5166 C 75.93815914495559 14.15761150696133 94.61287527639433 C 0.0 **** -0.24
5167 H 76.48914924895686 14.499348987557937 93.73651854566322 H 0.0 **** 0.06
5168 H 74.9158972625055 14.534949045780763 94.56954183653383 H 0.0 **** 0.06
5169 H 76.4250549885729 14.527407733377402 95.51550915397092 H 0.0 **** 0.06
5170 H 75.92336807434353 13.06772898763262 94.62939908647007 H 0.0 **** 0.06
5171 C 25.67115160585097 57.875742999047944 97.033924802825 C 0.0 **** -0.24
5172 H 26.201429236064303 58.58967552650685 97.66475023201755 H 0.0 **** 0.06
5173 H 26.35766294299196 57.088487460107416 96.72267795490504 H 0.0 **** 0.06
5174 H 25.28143593092499 58.38679610397126 96.1542231091345 H 0.0 **** 0.06
5175 H 24.84616075149461 57.43777950610067 97.59594774279648 H 0.0 **** 0.06
5176 C 99.77272165047447 104.294977213481 72.13749916607856 C 0.0 **** -0.24
5177 H 99.4277479610559 103.88536184495302 71.18808138945127 H 0.0 **** 0.06
5178 H 98.94142946193205 104.78634875124561 72.64373236027507 H 0.0 **** 0.06
5179 H 100.56633033392194 105.01872633873853 71.95387963123943 H 0.0 **** 0.06
5180 H 100.15451587652075 103.48854608787073 72.76367224114341 H 0.0 **** 0.06
5181 C 91.05379878908352 28.195864242649236 1.7821791191427314 C 0.0 **** -0.24
5182 H 90.13261126508029 27.643507883238186 1.5987951809537089 H 0.0 **** 0.06
5183 H 90.97451554836556 29.19050866743953 1.343737183519977 H 0.0 **** 0.06
5184 H 91.89242609328366 27.664923254460632 1.3301595575575345 H 0.0 **** 0.06
5185 H 91.21687505961359 28.284128292920656 2.856598183101613 H 0.0 **** 0.06
5186 C 30.184065867945435 95.89830316297196 75.94396895907693 C 0.0 **** -0.24
5187 H 29.720870207399457 95.9365329087928 74.95772558099907 H 0.0 **** 0.06
5188 H 29.678311309109574 95.1499636638672 76.55361229595206 H 0.0 **** 0.06
5189 H 30.101584562741152 96.87395395060793 76.42284480763675 H 0.0 **** 0.06
5190 H 31.236604671984537 95.63260170327493 75.84037090587839 H 0.0 **** 0.06
5191 C 43.20472191001238 47.46337675831279 70.70860768330718 C 0.0 **** -0.24
5192 H 44.24593971496256 47.63117478222256 70.43269279117106 H 0.0 **** 0.06
5193 H 42.5655707563032 47.66294426901902 69.84890291546222 H 0.0 **** 0.06
5194 H 42.93347614289087 48.13125326813736 71.52602519902328 H 0.0 **** 0.06
5195 H 43.07700117916727 46.42820737774713 71.02618996459069 H 0.0 **** 0.06
5196 C 69.73875759910729 46.05845071404351 79.55415790990726 C 0.0 **** -0.24
5197 H 70.38894992362921 46.176843774635735 78.68722726542443 H 0.0 **** 0.06
5198 H 69.89102854028938 45.07158359591626 79.99083232402268 H 0.0 **** 0.06
5199 H 68.69844390141664 46.16354521714975 79.24494714003235 H 0.0 **** 0.06
5200 H 69.97581114795297 46.82413885089497 80.29343596373943 H 0.0 **** 0.06
5201 C 30.773992694520615 64.87367708210053 9.29542251216185 C 0.0 **** -0.24
5202 H 29.934025126538756 65.24546458689878 9.881989840658207 H 0.0 **** 0.06
5203 H 31.032638188952433 63.86894875612495 9.628661428331043 H 0.0 **** 0.06
5204 H 31.630707176363245 65.53388254160996 9.429835107081601 H 0.0 **** 0.06
5205 H 30.496724237599707 64.8476014385493 8.240944900098839 H 0.0 **** 0.06
5206 C 104.94316695427005 6.427676707223895 25.500630326582836 C 0.0 **** -0.24
5207 H 105.65252701151202 5.843114450603764 24.91551499947755 H 0.0 **** 0.06
5208 H 103.97904851163791 6.442727121308451 24.99082851010931 H 0.0 **** 0.06
5209 H 105.31318727967403 7.447588958897825 25.607712948769134 H 0.0 **** 0.06
5210 H 104.82564633793127 5.978026638080848 26.48594772189027 H 0.0 **** 0.06
5211 C 55.171187448409086 37.749710984975934 63.023874809932124 C 0.0 **** -0.24
5212 H 54.50311716115988 37.70453905889519 63.88380694891059 H 0.0 **** 0.06
5213 H 54.79719431744212 37.09063301205521 62.23969235587295 H 0.0 **** 0.06
5214 H 56.16899890310239 37.430442663501566 63.32290774356572 H 0.0 **** 0.06
5215 H 55.212771674707824 38.77292706885065 62.65043096171439 H 0.0 **** 0.06
5216 C 44.536069521089786 18.432219551527297 43.83490175974069 C 0.0 **** -0.24
5217 H 44.56116882202516 17.458081812607162 44.322596712121964 H 0.0 **** 0.06
5218 H 45.405903001925445 19.013905673749885 44.13798857822104 H 0.0 **** 0.06
5219 H 43.62706286762899 18.959345656940293 44.12491846218157 H 0.0 **** 0.06
5220 H 44.546658106672524 18.296800476618436 42.752963542244856 H 0.0 **** 0.06
5221 C 72.38268898185319 56.51305275651592 61.96584131091714 C 0.0 **** -0.24
5222 H 72.67771449854718 56.386874775824026 63.00725128831088 H 0.0 **** 0.06
5223 H 71.67987242281356 57.342205735616716 61.88594815570768 H 0.0 **** 0.06
5224 H 71.90748629167004 55.598201485501505 61.60923880552728 H 0.0 **** 0.06
5225 H 73.26480053805534 56.723453868530015 61.36071297472678 H 0.0 **** 0.06
5226 C 35.53850239794676 28.921680041870616 35.42565715297707 C 0.0 **** -0.24
5227 H 35.37738312627576 29.348870575418772 36.41532402920606 H 0.0 **** 0.06
5228 H 34.73089487879942 28.22490672803451 35.195696576719655 H 0.0 **** 0.06
5229 H 36.491135103903446 28.391755093826674 35.408947647890955 H 0.0 **** 0.06
5230 H 35.55309038230995 29.718865748082862 34.68324366157148 H 0.0 **** 0.06
5231 C 77.43884376241971 53.93592667908973 80.9387908186965 C 0.0 **** -0.24
5232 H 78.40114565847648 54.13315990608868 80.46582692351598 H 0.0 **** 0.06
5233 H 76.92608632751754 54.87999835777029 81.12593845292007 H 0.0 **** 0.06
5234 H 77.59854552210919 53.41641350002118 81.88405382425191 H 0.0 **** 0.06
5235 H 76.83025651499298 53.31589141501516 80.28056096506864 H 0.0 **** 0.06
5236 C 61.813247110764905 76.34667945361593 54.78650392508363 C 0.0 **** -0.24
5237 H 61.97466444752882 76.9371717072495 55.689718274486275 H 0.0 **** 0.06
5238 H 62.48707984610644 75.48942582280608 54.78805406333869 H 0.0 **** 0.06
5239 H 62.011065326314736 76.96291964900799 53.910134352681744 H 0.0 **** 0.06
5240 H 60.780497129947776 75.99864895283358 54.76071697297977 H 0.0 **** 0.06
5241 C 105.05984219279253 20.258567859088487 41.68335071354508 C 0.0 **** -0.24
5242 H 104.95816614218947 21.201376072427024 42.22031098721649 H 0.0 **** 0.06
5243 H 104.5934336315222 20.34803427359742 40.70164781744174 H 0.0 **** 0.06
5244 H 104.56969870557106 19.464859670573105 42.2480899707536 H 0.0 **** 0.06
5245 H 106.11582532626824 20.02006029259826 41.564332311688105 H 0.0 **** 0.06
5246 C 24.4058800551239 57.182850205140355 1.9752415914384613 C 0.0 **** -0.24
5247 H 24.087971216421238 56.9490708580737 2.9918840795738646 H 0.0 **** 0.06
5248 H 23.83091768987407 56.58475745135963 1.2684261744728076 H 0.0 **** 0.06
5249 H 25.46569877859193 56.95657910455155 1.86575966905653 H 0.0 **** 0.06
5250 H 24.237122333701507 58.24173393653603 1.7771713489940737 H 0.0 **** 0.06
5251 C 20.906488479363844 101.38991510506453 105.80389432679885 C 0.0 **** -0.24
5252 H 19.84750831632084 101.1524997261232 105.70086193361806 H 0.0 **** 0.06
5253 H 21.131109731945088 102.29767777461572 105.24425433833511 H 0.0 **** 0.06
5254 H 21.501931991454256 100.56459331656102 105.41406916495322 H 0.0 **** 0.06
5255 H 21.1425933179585 101.54345137209695 106.85657271887897 H 0.0 **** 0.06
5256 C 1.2644538162069372 46.29625159706987 20.739514251763666 C 0.0 **** -0.24
5257 H 1.1570107900467406 46.33517830852975 21.823571639935864 H 0.0 **** 0.06
5258 H 1.572853440200456 47.27418047114179 20.370130322623496 H 0.0 **** 0.06
5259 H 0.3100339261625411 46.021891753094025 20.289757568911043 H 0.0 **** 0.06
5260 H 2.017873135569557 45.55326365759842 20.475466874024917 H 0.0 **** 0.06
5261 C 43.27126142101383 85.19073398165688 50.944970357280226 C 0.0 **** -0.24
5262 H 42.3884859492382 85.68185986101383 50.5355334929713 H 0.0 **** 0.06
5263 H 44.16687889800346 85.61594901292284 50.49113530320753 H 0.0 **** 0.06
5264 H 43.2265645851395 84.12330982965506 50.7292469884668 H 0.0 **** 0.06
5265 H 43.303116251674055 85.34181722303572 52.0239656444752 H 0.0 **** 0.06
5266 C 82.88210283992566 29.732270511643378 9.054406007390014 C 0.0 **** -0.24
5267 H 82.54520072400564 29.191320346763305 8.170124044521884 H 0.0 **** 0.06
5268 H 82.16521726025934 29.587802651061082 9.862316140466106 H 0.0 **** 0.06
5269 H 82.95922256666381 30.794349001108117 8.821583027216263 H 0.0 **** 0.06
5270 H 83.85804908943618 29.355262995665043 9.360541546755812 H 0.0 **** 0.06
5271 C 39.596175811605036 33.20503574205355 92.28406997472972 C 0.0 **** -0.24
5272 H 40.18872911746956 32.35560373944756 92.62490658241241 H 0.0 **** 0.06
5273 H 39.81204228101649 33.39964356326201 91.23298423917066 H 0.0 **** 0.06
5274 H 39.84705394366412 34.08438272460634 92.87651382181707 H 0.0 **** 0.06
5275 H 38.5365473385402 32.97745238033198 92.40115126946944 H 0.0 **** 0.06
5276 C 63.10615854777488 9.881420284026078 49.43894097454404 C 0.0 **** -0.24
5277 H 62.999865932093044 10.356249967456193 50.41378984093751 H 0.0 **** 0.06
5278 H 63.36839547315613 10.634181535337916 48.694586848994845 H 0.0 **** 0.06
5279 H 62.1643155621591 9.40855975994026 49.16043526835523 H 0.0 **** 0.06
5280 H 63.891412151182365 9.128126003938775 49.485718410545985 H 0.0 **** 0.06
5281 C 26.788140585286442 78.29933227425036 55.40424590250649 C 0.0 **** -0.24
5282 H 26.30090022390246 78.0576913317643 56.34857750064515 H 0.0 **** 0.06
5283 H 27.442891583332255 77.47725228968783 55.112056889947496 H 0.0 **** 0.06
5284 H 27.377141675535825 79.20933353627373 55.52060374413128 H 0.0 **** 0.06
5285 H 26.031523255443744 78.4523987542622 54.63449555952252 H 0.0 **** 0.06
5286 C 99.28264887575574 62.02022420597012 80.79461016434487 C 0.0 **** -0.24
5287 H 99.75849816717476 61.543368612616035 79.93788156750878 H 0.0 **** 0.06
5288 H 100.04838762184426 62.386256131550354 81.47831221552184 H 0.0 **** 0.06
5289 H 98.65255017116363 61.294316242239546 81.30894271868408 H 0.0 **** 0.06
5290 H 98.67117704337193 62.85422039949303 80.45207229235564 H 0.0 **** 0.06
5291 C 1.1792853996299186 41.4679302261006 44.119561618670275 C 0.0 **** -0.24
5292 H 1.2689188760027719 42.37263426029991 44.719261600668204 H 0.0 **** 0.06
5293 H 2.021972797607617 40.808439341094065 44.32832572853374 H 0.0 **** 0.06
5294 H 1.177549991523449 41.73200973941987 43.06185195900511 H 0.0 **** 0.06
5295 H 0.24786709659142048 40.958144632506006 44.367775928059366 H 0.0 **** 0.06
5296 C 2.0283055803799925 81.59996967696624 47.47347598623264 C 0.0 **** -0.24
5297 H 2.38292497011804 80.9922774374259 48.30597519798306 H 0.0 **** 0.06
5298 H 1.271187844918245 82.29821099470405 47.830886846335545 H 0.0 **** 0.06
5299 H 1.5945940718025327 80.95273115645251 46.71129928459112 H 0.0 **** 0.06
5300 H 2.863095220950015 82.15505621954279 47.046385994310185 H 0.0 **** 0.06
5301 C 87.51122221617612 19.454870602930328 100.97906615081348 C 0.0 **** -0.24
5302 H 87.89431519425011 18.479172753861974 100.67860945339515 H 0.0 **** 0.06
5303 H 87.29017712171185 19.444932472594814 102.04682738431495 H 0.0 **** 0.06
5304 H 86.6000149563975 19.674518944788815 100.42122771743763 H 0.0 **** 0.06
5305 H 88.25880128017434 20.219496445196114 100.76831614649416 H 0.0 **** 0.06
5306 C 67.74784667441286 35.09447204374083 19.499498297824246 C 0.0 **** -0.24
5307 H 68.31908151448991 35.29514163506664 18.593486074305872 H 0.0 **** 0.06
5308 H 66.83430052853139 34.55903588868018 19.241699436702035 H 0.0 **** 0.06
5309 H 67.49145361014972 36.03863599083602 19.982485723558824 H 0.0 **** 0.06
5310 H 68.34583602878405 34.48967085733244 20.17971802031967 H 0.0 **** 0.06
5311 C 28.055195369776925 80.36210501550548 20.74827374058455 C 0.0 **** -0.24
5312 H 28.013428181314396 80.10680003370913 21.807442096375098 H 0.0 **** 0.06
5313 H 27.075979840668197 80.19891437201238 20.297253224364454 H 0.0 **** 0.06
5314 H 28.794427280678548 79.73345435836316 20.251619684972198 H 0.0 **** 0.06
5315 H 28.336790315921746 81.40951204443363 20.638485200570017 H 0.0 **** 0.06
5316 C 10.535610710384162 92.03745628738152 37.3294576418042 C 0.0 **** -0.24
5317 H 10.55565342594312 91.79958707383888 38.393328529838186 H 0.0 **** 0.06
5318 H 10.833394559668449 91.15900069079746 36.75579108937234 H 0.0 **** 0.06
5319 H 11.227199189743772 92.85549726525332 37.127027264533865 H 0.0 **** 0.06
5320 H 9.52693865406944 92.33392301811568 37.042066169096586 H 0.0 **** 0.06
5321 C 25.528776425093042 8.813547879518069 71.3744625391673 C 0.0 **** -0.24
5322 H 25.73381592930636 7.948612065739155 72.00651128559001 H 0.0 **** 0.06
5323 H 25.882236555077185 8.615302804795931 70.36175299886553 H 0.0 **** 0.06
5324 H 26.044069725413976 9.686442651064965 71.77476270375624 H 0.0 **** 0.06
5325 H 24.456141096272802 9.00202521741619 71.35364480363236 H 0.0 **** 0.06
5326 C 61.37254949657314 99.19989768300402 90.32827512144699 C 0.0 **** -0.24
5327 H 61.137239958217606 100.22677470909373 90.6094952130132 H 0.0 **** 0.06
5328 H 61.18384715358691 99.06276420090252 89.26381539330158 H 0.0 **** 0.06
5329 H 60.746166459084264 98.51470913566244 90.89957946938499 H 0.0 **** 0.06
5330 H 62.42168659377778 98.99626429629376 90.54181314216893 H 0.0 **** 0.06
5331 C 97.22919165976609 57.26276469543146 28.817429442290617 C 0.0 **** -0.24
5332 H 98.17203829271348 57.10966887535311 29.342747075335495 H 0.0 **** 0.06
5333 H 97.43159664908517 57.537224419653654 27.781097503381815 H 0.0 **** 0.06
5334 H 96.66865966469211 58.062014367260986 29.302551656551472 H 0.0 **** 0.06
5335 H 96.64556453850561 56.3424872806681 28.841399645064826 H 0.0 **** 0.06
5336 C 47.58056125281399 74.12749228697652 4.047085770414501 C 0.0 **** -0.24
5337 H 47.89354571581242 74.80900469003379 4.838864359586639 H 0.0 **** 0.06
5338 H 48.461142393761406 73.72677454890132 3.5439775290550575 H 0.0 **** 0.06
5339 H 46.96387109790601 74.66558273967344 3.3274854611922224 H 0.0 **** 0.06
5340 H 47.00483626374762 73.30889354232995 4.479278494859837 H 0.0 **** 0.06
5341 C 103.1133375667293 42.969702326183324 52.479869287112535 C 0.0 **** -0.24
5342 H 102.65905946654786 43.95812201571118 52.404645130890515 H 0.0 **** 0.06
5343 H 103.69175535148707 42.905524427562625 53.402032946938846 H 0.0 **** 0.06
5344 H 103.77018471390207 42.805845643700934 51.6261647279328 H 0.0 **** 0.06
5345 H 102.33082054995697 42.21048340251656 52.48777398172922 H 0.0 **** 0.06
5346 C 32.79861511190934 43.10751459642756 85.4264344948946 C 0.0 **** -0.24
5347 H 32.984587596041045 42.09025577365128 85.7713568663636 H 0.0 **** 0.06
5348 H 31.80817542928731 43.42613396197936 85.75118768640867 H 0.0 **** 0.06
5349 H 32.85191843700329 43.137711379339464 84.33871368455026 H 0.0 **** 0.06
5350 H 33.55163333776299 43.77543344460929 85.84561429652543 H 0.0 **** 0.06
5351 C 25.50165052381766 39.330160320769856 41.76665513605877 C 0.0 **** -0.24
5352 H 25.38408432662618 38.2773832594933 41.51272150570992 H 0.0 **** 0.06
5353 H 24.546765135244698 39.72904704077581 42.11292542309451 H 0.0 **** 0.06
5354 H 25.82900787728329 39.8827482817979 40.88617379035807 H 0.0 **** 0.06
5355 H 26.246252922226006 39.43194519748853 42.55715047878239 H 0.0 **** 0.06
5356 C 68.30327183362675 24.70905116423893 4.355326874956974 C 0.0 **** -0.24
5357 H 68.39860590846756 23.759317125747643 3.8291250395827587 H 0.0 **** 0.06
5358 H 67.30775308706852 24.784519962814613 4.791452476466667 H 0.0 **** 0.06
5359 H 68.45674867035198 25.529423208352696 3.654323115287097 H 0.0 **** 0.06
5360 H 69.05216356741934 24.761846871785664 5.146569293387813 H 0.0 **** 0.06
5361 C 102.44518805686891 63.8262550263085 95.04622845469942 C 0.0 **** -0.24
5362 H 101.37090786788488 63.86969372206664 94.86224491907724 H 0.0 **** 0.06
5363 H 102.94407209991742 64.60430827844908 94.46801692098997 H 0.0 **** 0.06
5364 H 102.82503108852028 62.84985545802522 94.74747804760598 H 0.0 **** 0.06
5365 H 102.63727633547748 63.982058502676125 96.1082661767334 H 0.0 **** 0.06
5366 C 8.327884768795741 2.2926011858802156 50.868915988289274 C 0.0 **** -0.24
5367 H 8.18583019390374 2.884779847619029 51.77330123155315 H 0.0 **** 0.06
5368 H 8.138419189373764 1.2420728092325817 51.090240748004845 H 0.0 **** 0.06
5369 H 9.35161562825948 2.411150869500432 50.51492619429982 H 0.0 **** 0.06
5370 H 7.635270148009312 2.634352569237251 50.09943843212503 H 0.0 **** 0.06
5371 C 100.29516467633317 48.61512686558547 12.303521802054933 C 0.0 **** -0.24
5372 H 101.22147354422052 48.36723102282511 11.784645835466268 H 0.0 **** 0.06
5373 H 99.58191738256147 47.79950329468804 12.18122203317145 H 0.0 **** 0.06
5374 H 99.87748545436793 49.53024818043326 11.884815803560583 H 0.0 **** 0.06
5375 H 100.50159045625804 48.76233621837096 13.363967248295161 H 0.0 **** 0.06
5376 C 0.9347677039734776 86.1154054076323 73.10199217522175 C 0.0 **** -0.24
5377 H 1.3820010519724235 85.28224974846108 73.64533345506973 H 0.0 **** 0.06
5378 H 1.7190649633680692 86.69215477778496 72.61277276234561 H 0.0 **** 0.06
5379 H 0.3933066840958759 86.75458092728346 73.8000081961017 H 0.0 **** 0.06
5380 H 0.24460287593727514 85.73005031961313 72.3519290831066 H 0.0 **** 0.06
5381 C 103.93144956998054 14.562215422940142 100.06758612805336 C 0.0 **** -0.24
5382 H 104.38592752514928 15.032097599282451 100.94058171706448 H 0.0 **** 0.06
5383 H 103.47500579244146 13.617059816079802 100.36040797133504 H 0.0 **** 0.06
5384 H 104.69787663658504 14.378926035276947 99.31415047361466 H 0.0 **** 0.06
5385 H 103.16855181489468 15.2232667230262 99.65580715524666 H 0.0 **** 0.06
5386 C 104.18587028308464 98.91446514266137 6.276345103095977 C 0.0 **** -0.24
5387 H 103.41238973199289 98.65774339508415 5.553443707973784 H 0.0 **** 0.06
5388 H 104.3127093034914 99.99734678145191 6.304039693316923 H 0.0 **** 0.06
5389 H 105.12548830658069 98.44609498971735 5.985890272522383 H 0.0 **** 0.06
5390 H 103.89219761657822 98.55813881606038 7.263547517177756 H 0.0 **** 0.06
5391 C 13.747197071926848 39.52461073676125 94.2863327566361 C 0.0 **** -0.24
5392 H 13.30467691827883 39.80304544445164 95.2430363464727 H 0.0 **** 0.06
5393 H 13.877600578760024 38.44257201170615 94.2484925299986 H 0.0 **** 0.06
5394 H 14.71654948795404 40.01204354539948 94.17996603993794 H 0.0 **** 0.06
5395 H 13.090870468812412 39.84125175932809 93.47682829202162 H 0.0 **** 0.06
5396 C 89.63409901287719 81.20203170770755 56.10424629012802 C 0.0 **** -0.24
5397 H 89.91821472568621 80.15760037772824 56.23394663234908 H 0.0 **** 0.06
5398 H 90.28408068049727 81.83269747502814 56.710689382030544 H 0.0 **** 0.06
5399 H 88.59892524163541 81.3378337017315 56.419471366031715 H 0.0 **** 0.06
5400 H 89.73402672219338 81.47781128469354 55.05509390686336 H 0.0 **** 0.06
5401 C 11.469039524576687 5.277091219716567 79.10262644522174 C 0.0 **** -0.24
5402 H 11.374050112397043 4.22839918701213 78.82176042880182 H 0.0 **** 0.06
5403 H 11.573519978680338 5.885382360969928 78.20365899624913 H 0.0 **** 0.06
5404 H 12.347996445662346 5.405674010458 79.73318638662629 H 0.0 **** 0.06
5405 H 10.579156209010549 5.587687432685698 79.65033567074816 H 0.0 **** 0.06
5406 C 6.858407601701316 60.70421707036924 98.73604136366443 C 0.0 **** -0.24
5407 H 5.971230211023851 60.21135258741803 99.13320577474902 H 0.0 **** 0.06
5408 H 7.75037141496108 60.19737901366044 99.10525739759368 H 0.0 **** 0.06
5409 H 6.8703617989918655 61.744696133502615 99.05964157052324 H 0.0 **** 0.06
5410 H 6.841285727711494 60.661954816088695 97.64686531567608 H 0.0 **** 0.06
5411 C 26.689595054100597 11.755775780852161 100.55562737000952 C 0.0 **** -0.24
5412 H 26.263921654831083 11.67003932331653 99.55558529655087 H 0.0 **** 0.06
5413 H 25.920066104363528 11.540823383834152 101.29685564511271 H 0.0 **** 0.06
5414 H 27.06493103007409 12.768949678945617 100.70449083660378 H 0.0 **** 0.06
5415 H 27.508910114831824 11.045091233090943 100.66401100269752 H 0.0 **** 0.06
5416 C 100.68053264781184 40.18323039372626 56.68043383795606 C 0.0 **** -0.24
5417 H 101.1230969813941 39.412829050626485 57.311551314737244 H 0.0 **** 0.06
5418 H 100.07080365503144 39.713869603701724 55.90805133145952 H 0.0 **** 0.06
5419 H 101.47229217311973 40.768973040575304 56.213040932288806 H 0.0 **** 0.06
5420 H 100.05580594560577 40.836299741104824 57.289374441639325 H 0.0 **** 0.06
5421 C 58.89794267913467 33.740573457417554 97.69950063483238 C 0.0 **** -0.24
5422 H 59.08740018890421 34.81217294987141 97.63806707703645 H 0.0 **** 0.06
5423 H 57.965411308385654 33.56738058711488 98.23638532277705 H 0.0 **** 0.06
5424 H 59.718562483005115 33.255896028332984 98.2284908399727 H 0.0 **** 0.06
5425 H 58.820994716842364 33.32793575728169 96.69320153405036 H 0.0 **** 0.06
5426 C 28.877997784227375 90.93926207143872 43.35363095863795 C 0.0 **** -0.24
5427 H 28.770296628923624 91.49602609690074 44.284597658770736 H 0.0 **** 0.06
5428 H 29.229974475862072 91.61033409506034 42.569314368447806 H 0.0 **** 0.06
5429 H 27.914342043827418 90.51964220091435 43.06748341619402 H 0.0 **** 0.06
5430 H 29.598227809730417 90.13373984143273 43.49298412365317 H 0.0 **** 0.06
5431 C 75.36294588601984 52.40458377259296 74.58578553499518 C 0.0 **** -0.24
5432 H 74.49593906203403 51.85966107142306 74.9593991455501 H 0.0 **** 0.06
5433 H 76.23216071544863 52.1667713810738 75.19963534624031 H 0.0 **** 0.06
5434 H 75.16679676115 53.47617248617604 74.63356524910336 H 0.0 **** 0.06
5435 H 75.55549458183891 52.11674889936265 73.55299672671953 H 0.0 **** 0.06
5436 C 47.05548189920326 40.12453463576937 85.73466637423127 C 0.0 **** -0.24
5437 H 46.24651403840139 40.03532785406483 85.00892681847705 H 0.0 **** 0.06
5438 H 48.00398083641691 39.88831543880737 85.25206822277318 H 0.0 **** 0.06
5439 H 46.882670298971476 39.42959353717053 86.55594811097745 H 0.0 **** 0.06
5440 H 47.08759799832325 41.143082161283616 86.11964057598374 H 0.0 **** 0.06
5441 C 54.38990694111125 30.747219849760086 48.25134471423118 C 0.0 **** -0.24
5442 H 53.71795001330454 31.036314398508125 47.44319253712933 H 0.0 **** 0.06
5443 H 55.1596182730372 30.080291098329866 47.86125462983535 H 0.0 **** 0.06
5444 H 53.824094293738824 30.234159244842715 49.02892594256621 H 0.0 **** 0.06
5445 H 54.858774534227734 31.63754653835275 48.66976466063044 H 0.0 **** 0.06
5446 C 11.999836381107741 55.66476517157332 44.398051498281575 C 0.0 **** -0.24
5447 H 12.13994551904051 54.955060462736064 45.213676647390905 H 0.0 **** 0.06
5448 H 12.949742499169531 55.81930043230831 43.88529719633257 H 0.0 **** 0.06
5449 H 11.644285280980455 56.61371071949395 44.79932878640003 H 0.0 **** 0.06
5450 H 11.26687352980639 55.26917666219314 43.695763919536084 H 0.0 **** 0.06
5451 C 105.32887758435332 30.738591091397836 61.75301727122314 C 0.0 **** -0.24
5452 H 104.67833750080786 29.86338477805272 61.74405793243176 H 0.0 **** 0.06
5453 H 105.17538212143727 31.296305511189843 62.676972619261846 H 0.0 **** 0.06
5454 H 105.09253818179491 31.37472697131831 60.89986514542505 H 0.0 **** 0.06
5455 H 106.36900339526511 30.417513500619094 61.69104778497683 H 0.0 **** 0.06
5456 C 28.155773809804145 67.95264763237597 103.77995814665684 C 0.0 **** -0.24
5457 H 27.66273040964552 68.33357890552023 102.88650238249909 H 0.0 **** 0.06
5458 H 28.03315773291297 66.86989534261127 103.82912685977209 H 0.0 **** 0.06
5459 H 27.709510417615434 68.40864074649275 104.66355475094025 H 0.0 **** 0.06
5460 H 29.217796525572226 68.196863642377 103.74219522312916 H 0.0 **** 0.06
5461 C 4.556023809566113 55.39331274827609 46.706190823001506 C 0.0 **** -0.24
5462 H 5.055442508120763 56.07541766980924 47.39522246879592 H 0.0 **** 0.06
5463 H 4.202943327353822 55.950182861066736 45.83743675978604 H 0.0 **** 0.06
5464 H 3.7101407176606642 54.92554045891026 47.20735992375084 H 0.0 **** 0.06
5465 H 5.258847738124217 54.625108771838995 46.383242070477046 H 0.0 **** 0.06
5466 C 72.96012229563621 50.561873898713 79.91180368929224 C 0.0 **** -0.24
5467 H 72.23015949990967 49.8255020232877 79.57742900479103 H 0.0 **** 0.06
5468 H 72.88436042589527 50.68453394531875 80.99268453598205 H 0.0 **** 0.06
5469 H 72.76347455938301 51.51606820931991 79.42260065380354 H 0.0 **** 0.06
5470 H 73.9637518062675 50.22104412990544 79.653953606462 H 0.0 **** 0.06
5471 C 41.34489317059467 66.67592811495047 40.96038477689439 C 0.0 **** -0.24
5472 H 41.04668250585081 65.66276233196126 40.69361496277156 H 0.0 **** 0.06
5473 H 41.965348164744455 66.64718027949945 41.856615166747474 H 0.0 **** 0.06
5474 H 40.45605201701085 67.27671820063568 41.15363434224378 H 0.0 **** 0.06
5475 H 41.910336933454346 67.11685181505601 40.13958008766349 H 0.0 **** 0.06
5476 C 99.67593890834934 44.77426831785857 67.87573360528117 C 0.0 **** -0.24
5477 H 98.70224977026903 44.84822656078802 67.39164235569385 H 0.0 **** 0.06
5478 H 99.60459069836352 45.15452101816214 68.89509519732908 H 0.0 **** 0.06
5479 H 100.4038364929682 45.36446898471576 67.31784378932406 H 0.0 **** 0.06
5480 H 99.99337759399248 43.73194370854549 67.8971059422312 H 0.0 **** 0.06
5481 C 43.14904800825559 84.11043244972294 26.752162822667742 C 0.0 **** -0.24
5482 H 42.6829458272708 83.75294931892242 25.83397641688373 H 0.0 **** 0.06
5483 H 42.975718984147335 85.18154645287859 26.85391020342786 H 0.0 **** 0.06
5484 H 44.22148761079552 83.91680011134636 26.71545364740649 H 0.0 **** 0.06
5485 H 42.714772038964895 83.58973184825774 27.606689626252546 H 0.0 **** 0.06
5486 C 20.51631259064968 26.334827850437918 12.420247255565783 C 0.0 **** -0.24
5487 H 21.40084936417956 26.85419832669794 12.789701903711645 H 0.0 **** 0.06
5488 H 20.231593785374958 25.55533118449145 13.12673068989406 H 0.0 **** 0.06
5489 H 20.737975863113835 25.886862482260824 11.451796889538315 H 0.0 **** 0.06
5490 H 19.696850137768873 27.045546719106852 12.31261040788793 H 0.0 **** 0.06
5491 C 101.73081367951835 72.6335653224869 41.67746304604506 C 0.0 **** -0.24
5492 H 101.67499503485857 73.29343751930884 42.54347383659115 H 0.0 **** 0.06
5493 H 102.23234177324525 73.1519098388972 40.85936506601243 H 0.0 **** 0.06
5494 H 100.72424554140588 72.35535730187722 41.368043418709874 H 0.0 **** 0.06
5495 H 102.29272394299483 71.73714755942622 41.9389620673237 H 0.0 **** 0.06
5496 C 19.225776641298623 87.18142640961236 35.37732403418906 C 0.0 **** -0.24
5497 H 19.717427909443884 86.83951928508 34.46580699120989 H 0.0 **** 0.06
5498 H 18.722453009589586 86.34106064757788 35.85545834351885 H 0.0 **** 0.06
5499 H 18.493786656557077 87.95012871081076 35.1284462188363 H 0.0 **** 0.06
5500 H 19.969918437848847 87.59491858999058 36.057401875634326 H 0.0 **** 0.06
5501 C 73.97609803942689 55.36178397380064 0.6457689029386984 C 0.0 **** -0.24
5502 H 72.91635432124107 55.60776883271603 0.7169056185702516 H 0.0 **** 0.06
5503 H 74.25271255018865 55.24858970430296 -0.40286888819341016 H 0.0 **** 0.06
5504 H 74.16763316817944 54.42812724003352 1.1752055213340213 H 0.0 **** 0.06
5505 H 74.5648586559781 56.16166787907349 1.0939177000702216 H 0.0 **** 0.06
5506 C 32.245877791919796 21.759948578065533 60.00017520514626 C 0.0 **** -0.24
5507 H 33.1414096873561 22.24582608342446 60.38901506187682 H 0.0 **** 0.06
5508 H 32.52639942505667 20.850854813814493 59.46990002464878 H 0.0 **** 0.06
5509 H 31.73445624132119 22.437468587205203 59.31656834962783 H 0.0 **** 0.06
5510 H 31.581388441829453 21.508453670461193 60.82768531979667 H 0.0 **** 0.06
5511 C 104.09601046376099 23.269600361518755 81.06868955079257 C 0.0 **** -0.24
5512 H 103.72064486551564 22.270676238272443 80.84340742699378 H 0.0 **** 0.06
5513 H 103.64188725080625 23.629083213055992 81.99164071796102 H 0.0 **** 0.06
5514 H 103.84268312344447 23.944645067829455 80.25084443139289 H 0.0 **** 0.06
5515 H 105.17951650592575 23.232165077366858 81.18659212895633 H 0.0 **** 0.06
5516 C 26.230738196538454 76.94252889809893 8.276098857976677 C 0.0 **** -0.24
5517 H 26.588438374865007 77.76862834801408 7.66135013052741 H 0.0 **** 0.06
5518 H 26.617940950105947 76.00269338747124 7.881236862717429 H 0.0 **** 0.06
5519 H 25.14134825850391 76.9225112591157 8.259112548559472 H 0.0 **** 0.06
5520 H 26.57686063092777 77.07634114321894 9.300181459489238 H 0.0 **** 0.06
5521 C 32.27512837143237 32.50712778667278 2.0533065185401025 C 0.0 **** -0.24
5522 H 32.83491802537543 33.09916226323364 2.7783461698035294 H 0.0 **** 0.06
5523 H 32.50439503115538 31.4507557440582 2.1947407130452428 H 0.0 **** 0.06
5524 H 32.556392222636816 32.80921715464825 1.044427748968829 H 0.0 **** 0.06
5525 H 31.207591923925378 32.67039417792162 2.198577621528357 H 0.0 **** 0.06
5526 C 39.669947232517615 60.97745575020001 2.9296468977606045 C 0.0 **** -0.24
5527 H 38.79262464633876 60.852626518713976 3.5637024262703685 H 0.0 **** 0.06
5528 H 40.486606509021186 60.36704408159561 3.3150219433007067 H 0.0 **** 0.06
5529 H 39.96935602281312 62.0257884158066 2.926692027233277 H 0.0 **** 0.06
5530 H 39.43139825235566 60.66569653832602 1.9127401716667016 H 0.0 **** 0.06
5531 C 97.67076953595212 19.498683598584023 45.076168194887714 C 0.0 **** -0.24
5532 H 98.2172217475479 20.44061288028989 45.04499358049347 H 0.0 **** 0.06
5533 H 97.41503476530164 19.192507369607256 44.06214032611015 H 0.0 **** 0.06
5534 H 96.75794360260043 19.62723620972615 45.65776147665187 H 0.0 **** 0.06
5535 H 98.29278325824488 18.732988817333847 45.54179274932213 H 0.0 **** 0.06
5536 C 89.00350892040885 34.89642748965517 69.94040785879744 C 0.0 **** -0.24
5537 H 89.28981021102774 35.121650078556655 70.96798271582122 H 0.0 **** 0.06
5538 H 88.04162222520333 34.3824817865962 69.93686301327094 H 0.0 **** 0.06
5539 H 89.75909298620581 34.2581816418695 69.48389652432925 H 0.0 **** 0.06
5540 H 88.92157091165294 35.825179218758166 69.3749044184495 H 0.0 **** 0.06
5541 C 82.30597120996546 48.95949224697722 23.144019254372836 C 0.0 **** -0.24
5542 H 81.4187847465476 49.577314986874114 23.28704023797232 H 0.0 **** 0.06
5543 H 82.16269630852233 48.314149043780446 22.277090087071485 H 0.0 **** 0.06
5544 H 82.46740019256157 48.34679121537397 24.030924454992288 H 0.0 **** 0.06
5545 H 83.17196843250278 49.59990320723216 22.98234602551895 H 0.0 **** 0.06
5546 C 77.26264693741729 18.980245438943303 30.76901824336653 C 0.0 **** -0.24
5547 H 78.01428054662291 19.761081743537293 30.649129407366843 H 0.0 **** 0.06
5548 H 76.46426485536023 19.131228365377197 30.042272808910354 H 0.0 **** 0.06
5549 H 76.8506939948486 19.02500100359379 31.77700455445182 H 0.0 **** 0.06
5550 H 77.7227848327206 18.005597878341057 30.607194432885876 H 0.0 **** 0.06
5551 C 98.12001580595941 78.91731499478789 16.42241560915599 C 0.0 **** -0.24
5552 H 97.53494917112681 78.04547632411415 16.130326487728325 H 0.0 **** 0.06
5553 H 98.38217455788359 79.49273441070396 15.53429961783013 H 0.0 **** 0.06
5554 H 99.02977041356598 78.59059205934541 16.926973262012154 H 0.0 **** 0.06
5555 H 97.53289141692338 79.5391781204521 17.09752735595356 H 0.0 **** 0.06
5556 C 52.74335835271115 47.980381844959226 41.561988535641774 C 0.0 **** -0.24
5557 H 52.66688430164709 47.93583198030652 40.47537418014171 H 0.0 **** 0.06
5558 H 52.080978412744194 47.233996341281 42.0029163091458 H 0.0 **** 0.06
5559 H 52.45252718032932 48.9729685704514 41.906349599522855 H 0.0 **** 0.06
5560 H 53.77071029648905 47.778061659767616 41.86298385459119 H 0.0 **** 0.06
5561 C 33.871710727256016 26.885829647635433 99.2328180338809 C 0.0 **** -0.24
5562 H 34.15625816306108 26.403380289850446 100.16798384188371 H 0.0 **** 0.06
5563 H 34.627472671016534 26.681595762861065 98.47353141351931 H 0.0 **** 0.06
5564 H 33.794063744703095 27.961949401368003 99.3890548606634 H 0.0 **** 0.06
5565 H 32.90820695141974 26.49631921580223 98.90183635164294 H 0.0 **** 0.06
5566 C 9.778253321625343 15.50935020029101 15.703889985710987 C 0.0 **** -0.24
5567 H 10.272892122900316 14.898861092024191 14.947971839827858 H 0.0 **** 0.06
5568 H 8.853701400565129 15.915172591678015 15.293939240335192 H 0.0 **** 0.06
5569 H 10.437028922352312 16.327601900513898 15.99569059624966 H 0.0 **** 0.06
5570 H 9.551289504622957 14.89564311683867 16.57563865843852 H 0.0 **** 0.06
5571 C 98.56414886557131 15.685059677533104 94.20055376864516 C 0.0 **** -0.24
5572 H 98.73165075822479 14.636578946426425 94.44412493882889 H 0.0 **** 0.06
5573 H 97.81387758132027 15.75996171798647 93.41366662711859 H 0.0 **** 0.06
5574 H 99.49743051879294 16.13213749851684 93.85700242940968 H 0.0 **** 0.06
5575 H 98.2145613228398 16.21238472813502 95.08810351080032 H 0.0 **** 0.06
5576 C 8.72175502835674 65.75960594714857 86.91195687548519 C 0.0 **** -0.24
5577 H 8.891998338651662 65.4747756372861 87.94945653530607 H 0.0 **** 0.06
5578 H 7.873617266874783 65.20169973308387 86.51606463579596 H 0.0 **** 0.06
5579 H 9.611260151367906 65.53558032769111 86.32366966929499 H 0.0 **** 0.06
5580 H 8.511278414176719 66.8282654830885 86.85897436702359 H 0.0 **** 0.06
5581 C 60.04291820270049 53.02511458664686 28.50590723506508 C 0.0 **** -0.24
5582 H 59.81332204511932 52.014778585659954 28.168340283911277 H 0.0 **** 0.06
5583 H 59.62222066566039 53.74628378884518 27.80467310615532 H 0.0 **** 0.06
5584 H 61.12436825484929 53.15453623453473 28.556350891488506 H 0.0 **** 0.06
5585 H 59.61176184517291 53.18485973754771 29.49426465870502 H 0.0 **** 0.06
5586 C 19.003039080613775 69.51397511554597 37.78004035685197 C 0.0 **** -0.24
5587 H 18.494849163628885 70.0735124587676 36.99376957383146 H 0.0 **** 0.06
5588 H 18.936389320964054 70.06444004131322 38.71823322717103 H 0.0 **** 0.06
5589 H 20.05012406685097 69.37950992530625 37.50982410450729 H 0.0 **** 0.06
5590 H 18.52898718205222 68.53912986535431 37.896041483736155 H 0.0 **** 0.06
5591 C 7.957005902586474 85.97760114528705 34.506117828336116 C 0.0 **** -0.24
5592 H 8.164588353021458 86.6301344929652 35.354253117832755 H 0.0 **** 0.06
5593 H 7.612637035720269 85.00953315252401 34.86924195211171 H 0.0 **** 0.06
5594 H 8.86570016741328 85.84498618173862 33.91985111260948 H 0.0 **** 0.06
5595 H 7.184907980621205 86.42842208856817 33.883081747708246 H 0.0 **** 0.06
5596 C 81.43569550011918 66.81346182472066 38.27689087145455 C 0.0 **** -0.24
5597 H 81.49641657004629 67.18654239577893 37.254573630029256 H 0.0 **** 0.06
5598 H 80.60608106129705 66.11107884824838 38.3583202919617 H 0.0 **** 0.06
5599 H 81.27520712791069 67.64811026809042 38.95872158953295 H 0.0 **** 0.06
5600 H 82.36722901656881 66.30811216436217 38.53411215891015 H 0.0 **** 0.06
5601 C 66.7153181092723 31.463624868697906 10.646141732084573 C 0.0 **** -0.24
5602 H 67.15421445089541 30.519644224527212 10.96767276695499 H 0.0 **** 0.06
5603 H 67.49775160761403 32.11277606315386 10.251830560899009 H 0.0 **** 0.06
5604 H 66.23512734569243 31.94892177464314 11.495828409121543 H 0.0 **** 0.06
5605 H 65.97391078984111 31.274436298021044 9.869776106795712 H 0.0 **** 0.06
5606 C 104.67708147201819 13.41639422788144 31.894205367426764 C 0.0 **** -0.24
5607 H 104.97031807110966 13.722915011034615 32.898122694427634 H 0.0 **** 0.06
5608 H 105.43817162851738 12.753232472074643 31.480613710653827 H 0.0 **** 0.06
5609 H 104.57863641976593 14.296931636138126 31.258829745483723 H 0.0 **** 0.06
5610 H 103.72263228382786 12.892381731293455 31.938288588392027 H 0.0 **** 0.06
5611 C 4.717789151214561 12.599197378723602 29.198651857866437 C 0.0 **** -0.24
5612 H 4.400960332328225 13.13980188390019 30.090593548771437 H 0.0 **** 0.06
5613 H 4.740776653067314 11.530086461258065 29.412039234031667 H 0.0 **** 0.06
5614 H 5.712420902385247 12.933151421507205 28.90550680513789 H 0.0 **** 0.06
5615 H 4.014907340070863 12.793595343872425 28.38836591356916 H 0.0 **** 0.06
5616 C 30.523114690870578 34.039321232614476 5.082506644512833 C 0.0 **** -0.24
5617 H 29.96003551149863 33.38229758377877 5.74661096373319 H 0.0 **** 0.06
5618 H 29.862738727288935 34.81479670917792 4.694541345287959 H 0.0 **** 0.06
5619 H 30.928640592384383 33.458402027772784 4.254239585738702 H 0.0 **** 0.06
5620 H 31.33995821578022 34.500484696992444 5.637108838829647 H 0.0 **** 0.06
5621 C 51.66332152158275 71.46491319362411 63.170010534798394 C 0.0 **** -0.24
5622 H 50.97686936592878 72.15945002260986 62.687406489151655 H 0.0 **** 0.06
5623 H 51.466078588535574 71.44627840476804 64.24192129779358 H 0.0 **** 0.06
5624 H 52.68937058553763 71.78764514245148 62.99484178055546 H 0.0 **** 0.06
5625 H 51.520648490115576 70.46690934004891 62.75658051136617 H 0.0 **** 0.06
5626 C 51.01215637232542 99.76558897324868 9.011603132984831 C 0.0 **** -0.24
5627 H 50.86049293914397 99.97213946355521 10.070505277504907 H 0.0 **** 0.06
5628 H 51.35042275479498 98.73661431663727 8.886208730293532 H 0.0 **** 0.06
5629 H 51.76458228563018 100.44597155730506 8.612631331885368 H 0.0 **** 0.06
5630 H 50.07387672458202 99.907221191828 8.475939721372043 H 0.0 **** 0.06
5631 C 103.200494925733 84.71536663124903 23.237628548278284 C 0.0 **** -0.24
5632 H 102.22804117613374 85.15211812378462 23.010512848262824 H 0.0 **** 0.06
5633 H 103.39714579084091 84.80327475416091 24.306525804821185 H 0.0 **** 0.06
5634 H 103.97371286026103 85.24391928089116 22.680778664271344 H 0.0 **** 0.06
5635 H 103.2016977391079 83.66380019902032 22.952079491853663 H 0.0 **** 0.06
5636 C 91.61362162741267 66.48314767357353 78.96977596602292 C 0.0 **** -0.24
5637 H 91.19533183481227 66.58232049468151 79.97124043928235 H 0.0 **** 0.06
5638 H 92.38544485551907 67.23980777194127 78.8217651496258 H 0.0 **** 0.06
5639 H 90.82431879201408 66.61919985954569 78.23085884170919 H 0.0 **** 0.06
5640 H 92.05097780243526 65.49094945430839 78.85585930649992 H 0.0 **** 0.06
5641 C 28.019691574607407 70.0826087084323 107.12683164043756 C 0.0 **** -0.24
5642 H 27.381733846247982 70.17351989193205 106.24778340785787 H 0.0 **** 0.06
5643 H 29.02601383434842 69.8005049850257 106.81689500751334 H 0.0 **** 0.06
5644 H 27.615803522868305 69.318366097676 107.79057508823779 H 0.0 **** 0.06
5645 H 28.05447249268363 71.03744215760099 107.65005149255892 H 0.0 **** 0.06
5646 C 61.36843218022713 31.015893553942504 91.44035616400872 C 0.0 **** -0.24
5647 H 61.37282786267488 32.03377933206596 91.04898679602894 H 0.0 **** 0.06
5648 H 61.28490797278792 31.045048409869025 92.52648202249578 H 0.0 **** 0.06
5649 H 62.294964510815845 30.515195569484007 91.15959991638937 H 0.0 **** 0.06
5650 H 60.52070240404055 30.471423590125113 91.02403488566199 H 0.0 **** 0.06
5651 C 51.257506074877284 23.98315121953135 59.8576418472974 C 0.0 **** -0.24
5652 H 50.6736949473474 24.5098267404004 60.612790301152785 H 0.0 **** 0.06
5653 H 51.859104410390586 23.211101208431728 60.33687134259721 H 0.0 **** 0.06
5654 H 51.91145149541498 24.688743182137898 59.34659976438382 H 0.0 **** 0.06
5655 H 50.584068282263786 23.522916481776406 59.13400224520207 H 0.0 **** 0.06
5656 C 58.887355518395445 50.32858642539753 38.022028409901566 C 0.0 **** -0.24
5657 H 58.3713480028392 49.9682640447065 38.910941593746315 H 0.0 **** 0.06
5658 H 59.23684139585452 49.479699461898434 37.43512534244854 H 0.0 **** 0.06
5659 H 59.73990535834154 50.93964021123426 38.31993408071219 H 0.0 **** 0.06
5660 H 58.20239365321065 50.92876047835077 37.423000812969434 H 0.0 **** 0.06
5661 C 20.53985756088025 97.7436586606296 69.4889256129064 C 0.0 **** -0.24
5662 H 20.966091943097354 97.54286794302202 70.47279914836224 H 0.0 **** 0.06
5663 H 19.708533755011842 98.44191809522687 69.59020856742848 H 0.0 **** 0.06
5664 H 20.180710740946836 96.8119919401297 69.05208539286511 H 0.0 **** 0.06
5665 H 21.30332144903508 98.17700636048701 68.84417039554742 H 0.0 **** 0.06
5666 C 90.9952931567688 97.98815100942255 27.06496117970792 C 0.0 **** -0.24
5667 H 90.06872207184333 97.46383228698807 26.83033887242334 H 0.0 **** 0.06
5668 H 91.6751337500304 97.31047925298849 27.580924787231766 H 0.0 **** 0.06
5669 H 90.77638866641584 98.84196984742152 27.706641746523673 H 0.0 **** 0.06
5670 H 91.4593140158959 98.33646996505347 26.142550085771205 H 0.0 **** 0.06
5671 C 72.12244937801529 57.04500696350973 78.36586313806346 C 0.0 **** -0.24
5672 H 72.31739501544627 55.99453932278478 78.14742620878009 H 0.0 **** 0.06
5673 H 73.01274463671956 57.63314728230825 78.13913398324034 H 0.0 **** 0.06
5674 H 71.87188356771583 57.15668145816501 79.42057080797451 H 0.0 **** 0.06
5675 H 71.29079929694063 57.39405722001648 77.75481100341429 H 0.0 **** 0.06
5676 C 102.94792986727172 54.00426694398004 67.86794531914569 C 0.0 **** -0.24
5677 H 101.89425647111386 54.272195914132396 67.94796508494913 H 0.0 **** 0.06
5678 H 103.56223867805994 54.87912345986223 68.08228266053602 H 0.0 **** 0.06
5679 H 103.15638978405728 53.65250655264282 66.85748611521937 H 0.0 **** 0.06
5680 H 103.17692480546597 53.21440848922418 68.58305134490973 H 0.0 **** 0.06
5681 C 6.10527721649305 83.29430648393625 63.43137768411414 C 0.0 **** -0.24
5682 H 6.518888087476057 82.80165871322332 64.31224543946537 H 0.0 **** 0.06
5683 H 5.675606351377354 82.54518484981458 62.76600000804564 H 0.0 **** 0.06
5684 H 6.8979724118783565 83.83246453266757 62.91080781451065 H 0.0 **** 0.06
5685 H 5.330646658928828 83.9965419350454 63.73847954011397 H 0.0 **** 0.06
5686 C 106.41560867994465 38.95462919721237 7.1220477620236124 C 0.0 **** -0.24
5687 H 107.46855186777944 38.91257950089431 6.843847902215799 H 0.0 **** 0.06
5688 H 105.81283466768656 38.50479068375182 6.333100672271655 H 0.0 **** 0.06
5689 H 106.11697039009127 39.993910185581626 7.260921546826864 H 0.0 **** 0.06
5690 H 106.26434664501889 38.40556904302116 8.052589835380815 H 0.0 **** 0.06
5691 C 105.86848550944075 3.11711651445178 51.18290938651066 C 0.0 **** -0.24
5692 H 106.40931191367609 2.886079073486343 52.1010233451006 H 0.0 **** 0.06
5693 H 106.34989079856943 3.9559516177165506 50.68025113036259 H 0.0 **** 0.06
5694 H 104.8388248508992 3.379882386229326 51.42498524325097 H 0.0 **** 0.06
5695 H 105.87710262538673 2.2468403053023422 50.52750056575445 H 0.0 **** 0.06
5696 C 47.460958006772785 16.850356863467965 42.916224987919335 C 0.0 **** -0.24
5697 H 48.46641428764843 17.00910223336578 42.526447768860756 H 0.0 **** 0.06
5698 H 47.390235571437586 15.849417254475753 43.340519565474054 H 0.0 **** 0.06
5699 H 46.7374919994306 16.955335349038734 42.10802133865314 H 0.0 **** 0.06
5700 H 47.25150012242065 17.58888573847301 43.68991432678567 H 0.0 **** 0.06
5701 C 83.38017347448516 100.91447605924355 52.878319262157696 C 0.0 **** -0.24
5702 H 82.65902122804633 101.21449759685868 53.63872259603699 H 0.0 **** 0.06
5703 H 82.88948588702274 100.27148770958576 52.146112676710345 H 0.0 **** 0.06
5704 H 84.1986742093839 100.37092938253235 53.348899973624 H 0.0 **** 0.06
5705 H 83.77112609646835 101.80143474332186 52.3792149921508 H 0.0 **** 0.06
5706 C 0.39713008782818804 76.09062083000256 101.32425063203844 C 0.0 **** -0.24
5707 H -0.6435658406171143 76.37122180024993 101.48372083755277 H 0.0 **** 0.06
5708 H 1.0243583542518735 76.98221076568751 101.36823808533076 H 0.0 **** 0.06
5709 H 0.5017289149978126 75.6209078117872 100.34637668330392 H 0.0 **** 0.06
5710 H 0.7078789682186652 75.38959750815755 102.09925848192583 H 0.0 **** 0.06
5711 C 31.416186751533928 1.0943252891094915 68.08718777019101 C 0.0 **** -0.24
5712 H 30.603141972902648 1.1408390036275335 67.36257726993216 H 0.0 **** 0.06
5713 H 31.72505858166116 2.106203436408009 68.35066555533149 H 0.0 **** 0.06
5714 H 32.26048919881998 0.5584215408035647 67.65130206688502 H 0.0 **** 0.06
5715 H 31.077090992535176 0.5731880034532111 68.98173494184488 H 0.0 **** 0.06
5716 C 8.900673280655326 7.242719836032991 37.93511494794576 C 0.0 **** -0.24
5717 H 8.793101629334956 8.210123346923314 38.42479796181765 H 0.0 **** 0.06
5718 H 9.791515204815482 7.251794163739037 37.306288997377095 H 0.0 **** 0.06
5719 H 8.022711685870831 7.0484862078387565 37.3187372555278 H 0.0 **** 0.06
5720 H 8.995923453559499 6.462563180631117 38.690061094713634 H 0.0 **** 0.06
5721 C 29.823488003667656 44.40958001671771 30.300168155833404 C 0.0 **** -0.24
5722 H 28.802191666786356 44.35186595343848 29.92327480046285 H 0.0 **** 0.06
5723 H 30.492268315308017 43.88137898447039 29.620047354095675 H 0.0 **** 0.06
5724 H 29.872438866188077 43.95032143450669 31.287268482859133 H 0.0 **** 0.06
5725 H 30.126273144674904 45.45417412562989 30.36984595170017 H 0.0 **** 0.06
5726 C 42.69179019056289 50.11079674440265 46.74943764365035 C 0.0 **** -0.24
5727 H 42.827937104060354 51.16304734130466 46.49781599995153 H 0.0 **** 0.06
5728 H 43.55447840768965 49.758648662672385 47.31565095119587 H 0.0 **** 0.06
5729 H 42.59648741572028 49.5287094468124 45.8323157822592 H 0.0 **** 0.06
5730 H 41.79000186149045 49.99537749660843 47.34928081783793 H 0.0 **** 0.06
5731 C 20.113907173667215 80.05426819589407 25.141441375399694 C 0.0 **** -0.24
5732 H 20.272795444609798 79.25667823642233 24.41613423228577 H 0.0 **** 0.06
5733 H 19.123304733343794 80.48504195817382 24.99560420803175 H 0.0 **** 0.06
5734 H 20.87045347350489 80.82702991442066 25.003507512997828 H 0.0 **** 0.06
5735 H 20.189466214634095 79.64863683271471 26.14965448434441 H 0.0 **** 0.06
5736 C 91.75669759947775 22.57170550734355 67.83473863923334 C 0.0 **** -0.24
5737 H 92.27735756425798 23.528748404344583 67.84150279545878 H 0.0 **** 0.06
5738 H 91.99835641339098 22.032673768832296 66.91802136216009 H 0.0 **** 0.06
5739 H 90.68145128021828 22.743413474215117 67.88287830626172 H 0.0 **** 0.06
5740 H 92.06962514004334 21.981986381982438 68.69655209305279 H 0.0 **** 0.06
5741 C 30.828410110095376 86.5490118472166 91.4662791741957 C 0.0 **** -0.24
5742 H 31.20284664448576 86.2069581300832 92.43147618833146 H 0.0 **** 0.06
5743 H 29.781237092323835 86.26451809691201 91.36141400992275 H 0.0 **** 0.06
5744 H 31.41189397793036 86.0910548194135 90.66814597595862 H 0.0 **** 0.06
5745 H 30.919004313737645 87.63378063501949 91.40693196979944 H 0.0 **** 0.06
5746 C 35.16471395622443 59.394512511506264 66.65939881472862 C 0.0 **** -0.24
5747 H 35.461083698185035 58.752116955108704 67.48917268466407 H 0.0 **** 0.06
5748 H 35.20769914677747 58.82752580628568 65.72843257202759 H 0.0 **** 0.06
5749 H 35.84448383716487 60.24488928670371 66.59835788062648 H 0.0 **** 0.06
5750 H 34.14854175404592 59.75204335798696 66.82196080112442 H 0.0 **** 0.06
5751 C 87.67740098212971 63.0608791864566 94.32122438625642 C 0.0 **** -0.24
5752 H 87.38278157026059 63.47993265629654 93.3586895377331 H 0.0 **** 0.06
5753 H 88.76322489713618 63.09909004462658 94.41609865238496 H 0.0 **** 0.06
5754 H 87.34304805079961 62.025430484830764 94.38498806478573 H 0.0 **** 0.06
5755 H 87.22170056879656 63.64051130996566 95.1238646737707 H 0.0 **** 0.06
5756 C 88.78891676931171 71.10312002693425 76.84687184337444 C 0.0 **** -0.24
5757 H 88.31523299887812 71.86456326978237 77.46638179040622 H 0.0 **** 0.06
5758 H 88.83932280417775 71.45397089128994 75.81568143864888 H 0.0 **** 0.06
5759 H 88.20469523765264 70.18457858736411 76.88978427127853 H 0.0 **** 0.06
5760 H 89.7966791353176 70.91106862279463 77.21462170532487 H 0.0 **** 0.06
5761 C 7.14424140453383 43.08503245079339 76.17309434387928 C 0.0 **** -0.24
5762 H 7.855421633984008 42.38865130666886 76.61791983014933 H 0.0 **** 0.06
5763 H 6.131266411955892 42.705241401282734 76.30875259388284 H 0.0 **** 0.06
5764 H 7.3551360874720615 43.187655021107986 75.10897841343694 H 0.0 **** 0.06
5765 H 7.236832862246786 44.057370749627154 76.65754639492624 H 0.0 **** 0.06
5766 C 70.61273491207785 84.8637710952512 80.6567517661602 C 0.0 **** -0.24
5767 H 71.13048067480773 85.81700100679842 80.76120628208355 H 0.0 **** 0.06
5768 H 70.94808659271368 84.1810735139689 81.4377101423106 H 0.0 **** 0.06
5769 H 70.83488753655658 84.43481153928167 79.67904645697394 H 0.0 **** 0.06
5770 H 69.53868172438513 85.02154275355309 80.74867296718992 H 0.0 **** 0.06
5771 C 88.0752590901352 77.28896681289018 93.45194966495025 C 0.0 **** -0.24
5772 H 87.13500161788036 76.78687354064652 93.22260937140724 H 0.0 **** 0.06
5773 H 88.37086644123598 77.05675270224805 94.47526028497877 H 0.0 **** 0.06
5774 H 87.94674599517744 78.3656877780036 93.3464176635417 H 0.0 **** 0.06
5775 H 88.84820423806973 76.94558635885426 92.76364419778255 H 0.0 **** 0.06
5776 C 90.68248817457561 3.6430601221583743 61.34434277220248 C 0.0 **** -0.24
5777 H 90.06764507958786 4.1473779439910174 62.09017400968975 H 0.0 **** 0.06
5778 H 91.62764432847774 3.341841585778184 61.796426791557735 H 0.0 **** 0.06
5779 H 90.8761735444085 4.322651139117994 60.513900254359385 H 0.0 **** 0.06
5780 H 90.15779921580936 2.760972155053679 60.97727054102836 H 0.0 **** 0.06
5781 C 46.505808158201944 58.911195273226966 85.33880123548315 C 0.0 **** -0.24
5782 H 45.914316917477635 58.004682746713094 85.21221198660774 H 0.0 **** 0.06
5783 H 46.66628999604845 59.378211656942796 84.36695248404637 H 0.0 **** 0.06
5784 H 47.46796683481716 58.65673508934027 85.78288386852154 H 0.0 **** 0.06
5785 H 45.97482788919032 59.60304266630849 85.99192205314425 H 0.0 **** 0.06
5786 C 46.50329122927661 7.625534934951489 61.9840356270211 C 0.0 **** -0.24
5787 H 46.313554329653186 6.558445430120969 62.09581917765665 H 0.0 **** 0.06
5788 H 45.775275051124254 8.054165405740832 61.29517128722489 H 0.0 **** 0.06
5789 H 47.50860483484189 7.7761319552137 61.59053746617042 H 0.0 **** 0.06
5790 H 46.41648511043053 8.113870824164934 62.95506884046618 H 0.0 **** 0.06
5791 C 71.23253913948449 14.456178407378786 54.1080467894308 C 0.0 **** -0.24
5792 H 72.19503256067341 13.956636360838303 53.99914384618856 H 0.0 **** 0.06
5793 H 70.54004313927172 13.799031458608255 54.63306377539891 H 0.0 **** 0.06
5794 H 70.83265301542428 14.69237634538014 53.12107292552875 H 0.0 **** 0.06
5795 H 71.36402436781108 15.376779398733945 54.67636900620755 H 0.0 **** 0.06
5796 C 48.17167453836163 93.75679992455389 102.89331347815047 C 0.0 **** -0.24
5797 H 47.84676448134957 94.6290086256691 103.46088916484835 H 0.0 **** 0.06
5798 H 49.201007981339444 93.51322259110457 103.15788575135731 H 0.0 **** 0.06
5799 H 48.11116091293155 93.97557619153025 101.82746230251489 H 0.0 **** 0.06
5800 H 47.52581531588311 92.91033883469859 103.12815859028028 H 0.0 **** 0.06
5801 C 8.63312744122676 24.48565550633599 70.7038050135119 C 0.0 **** -0.24
5802 H 7.549664178334929 24.370385473389163 70.68812529502009 H 0.0 **** 0.06
5803 H 9.090314373168779 23.567234883958804 71.07385830593734 H 0.0 **** 0.06
5804 H 8.901324920768197 25.314948732235777 71.35767390192376 H 0.0 **** 0.06
5805 H 8.990537402973187 24.687969601055393 69.69351006059125 H 0.0 **** 0.06
5806 C 98.93531085137361 30.322863506015267 87.60598692453945 C 0.0 **** -0.24
5807 H 99.33472415069875 30.217322778990592 88.61545458219314 H 0.0 **** 0.06
5808 H 97.91174683501647 29.94880762475492 87.58053862174212 H 0.0 **** 0.06
5809 H 99.5500230127707 29.74906873727997 86.911847696524 H 0.0 **** 0.06
5810 H 98.94729292126428 31.373837144161257 87.31905400671326 H 0.0 **** 0.06
5811 C 70.18359206618842 42.52721812384452 4.214351792690101 C 0.0 **** -0.24
5812 H 70.31861799956133 41.4674516257952 3.9969128406239225 H 0.0 **** 0.06
5813 H 69.9894590607793 43.06682309657766 3.2873973401797354 H 0.0 **** 0.06
5814 H 71.08741736062458 42.91915428833086 4.681159678403892 H 0.0 **** 0.06
5815 H 69.33983680586724 42.6529411096707 4.89283797339818 H 0.0 **** 0.06
5816 C 47.85155804996066 0.9859142478143497 85.50173829314645 C 0.0 **** -0.24
5817 H 48.37509381240639 0.14566675324637401 85.95877242890924 H 0.0 **** 0.06
5818 H 47.012528346431594 0.612962967249473 84.9131159419129 H 0.0 **** 0.06
5819 H 48.53695416297762 1.5309579209670687 84.85285674771882 H 0.0 **** 0.06
5820 H 47.481712426121504 1.6516806485578144 86.28166843843627 H 0.0 **** 0.06
5821 C 48.46682715234982 33.88968687344408 32.3407386417611 C 0.0 **** -0.24
5822 H 47.58864570003439 34.39207193221989 31.935222558519172 H 0.0 **** 0.06
5823 H 49.36766606196491 34.333170464291584 31.916037226770364 H 0.0 **** 0.06
5824 H 48.42816335823787 32.83072115163543 32.08611852984521 H 0.0 **** 0.06
5825 H 48.48094216515125 34.002782746921184 33.424925808797184 H 0.0 **** 0.06
5826 C 80.90556588682352 25.561033562757416 54.73943057180053 C 0.0 **** -0.24
5827 H 80.17695642189403 25.636051639573566 53.932693187505805 H 0.0 **** 0.06
5828 H 81.63136542158679 24.781402775912284 54.502081230867766 H 0.0 **** 0.06
5829 H 80.39381138561129 25.310465315468036 55.668815102774275 H 0.0 **** 0.06
5830 H 81.42047533686866 26.51453381271449 54.853895441320056 H 0.0 **** 0.06
5831 C 90.50753172952344 61.1007281549272 47.30282671446045 C 0.0 **** -0.24
5832 H 91.38240474791141 61.52816518012597 46.81253341813451 H 0.0 **** 0.06
5833 H 89.6185400070679 61.66275765065018 47.012838144463274 H 0.0 **** 0.06
5834 H 90.63424677550765 61.15441713010904 48.383994826891325 H 0.0 **** 0.06
5835 H 90.39417691372168 60.060424210970865 47.00139845160999 H 0.0 **** 0.06
5836 C 72.93962826127796 6.463048367065539 85.49527729230621 C 0.0 **** -0.24
5837 H 72.63181184527429 6.7273643279175985 86.50689521856236 H 0.0 **** 0.06
5838 H 73.97554808211464 6.7682738183503375 85.33902948967271 H 0.0 **** 0.06
5839 H 72.29860687354477 6.972224736726105 84.77536359742638 H 0.0 **** 0.06
5840 H 72.85409736408286 5.385055143559214 85.3595578417617 H 0.0 **** 0.06
5841 C 92.16271411305583 94.75558004048759 105.03590398058543 C 0.0 **** -0.24
5842 H 92.53299405779849 94.02864064546048 104.313583034886 H 0.0 **** 0.06
5843 H 92.91423830157454 95.53055649474305 105.1900261530198 H 0.0 **** 0.06
5844 H 91.9585457769716 94.25537597519434 105.9828775366991 H 0.0 **** 0.06
5845 H 91.24507611703046 95.20857997967227 104.66001132056816 H 0.0 **** 0.06
5846 C 22.006737846756295 98.7073896536283 76.0913803288447 C 0.0 **** -0.24
5847 H 21.041849073354 99.12653872320203 75.80233445306551 H 0.0 **** 0.06
5848 H 21.951517437925133 97.61927155840408 76.06651258694336 H 0.0 **** 0.06
5849 H 22.25741381980319 99.03631338858457 77.099794148831 H 0.0 **** 0.06
5850 H 22.773492262426856 99.0498428581887 75.39671698629459 H 0.0 **** 0.06
5851 C 46.55218602906763 29.58509773167259 12.359137776761017 C 0.0 **** -0.24
5852 H 47.01550477280813 28.72120277397468 12.835582889372517 H 0.0 **** 0.06
5853 H 46.388590100219744 29.372854090277826 11.301653116211455 H 0.0 **** 0.06
5854 H 47.20795363530533 30.44982710239131 12.458594550416251 H 0.0 **** 0.06
5855 H 45.596684903748326 29.79554359050553 12.839685226628859 H 0.0 **** 0.06
5856 C 102.67608955109614 3.222577110124419 79.43773109107556 C 0.0 **** -0.24
5857 H 102.97873318463184 3.173564628464703 80.4843630112317 H 0.0 **** 0.06
5858 H 102.74826123999577 2.230568851318182 78.99228575098469 H 0.0 **** 0.06
5859 H 103.32928447781563 3.91105414439113 78.90239621559846 H 0.0 **** 0.06
5860 H 101.6458764665656 3.5753419800773827 79.37472529610059 H 0.0 **** 0.06
5861 C 46.71471170551496 12.60754285174005 6.804669186870285 C 0.0 **** -0.24
5862 H 46.52520672970047 13.247007783900823 5.94277583334781 H 0.0 **** 0.06
5863 H 45.90225618743 11.888511063141161 6.909019652763021 H 0.0 **** 0.06
5864 H 46.775923154478164 13.21978398318824 7.704963977174941 H 0.0 **** 0.06
5865 H 47.6558431191508 12.07574573626113 6.662207854982 H 0.0 **** 0.06
5866 C 72.10142024675471 19.289877154199786 95.35649106995353 C 0.0 **** -0.24
5867 H 72.51274955958678 19.188085060804383 96.36062814302966 H 0.0 **** 0.06
5868 H 72.765142943712 18.804657800204836 94.64062929411068 H 0.0 **** 0.06
5869 H 72.00714245124257 20.347028382402414 95.10773879168215 H 0.0 **** 0.06
5870 H 71.11872879985432 18.818442912612625 95.31777357359053 H 0.0 **** 0.06
5871 C 32.314582939147826 70.3744050363202 31.109366085629006 C 0.0 **** -0.24
5872 H 31.811140539860304 71.11971952630755 31.724877056312494 H 0.0 **** 0.06
5873 H 33.08152282819769 70.85987170617075 30.505928415164647 H 0.0 **** 0.06
5874 H 31.587521357466485 69.8925576752496 30.455034882703103 H 0.0 **** 0.06
5875 H 32.7767220942155 69.62513566097246 31.752986752996776 H 0.0 **** 0.06
5876 C 66.14224979130748 81.25226762850593 32.764391534591 C 0.0 **** -0.24
5877 H 65.50050247582855 81.82154241714505 32.09169671483684 H 0.0 **** 0.06
5878 H 65.93226179202875 80.18826495609119 32.65275334139213 H 0.0 **** 0.06
5879 H 65.95032670675093 81.55537279039237 33.79373574564107 H 0.0 **** 0.06
5880 H 67.1866824498216 81.44399563088035 32.51820155288053 H 0.0 **** 0.06
5881 C 94.07260538331252 26.96052289414389 48.370799295974365 C 0.0 **** -0.24
5882 H 93.73009854311826 26.160810349115327 49.02763156160481 H 0.0 **** 0.06
5883 H 94.09760791206496 26.599583203459584 47.34156743771655 H 0.0 **** 0.06
5884 H 95.07283510786625 27.273292818698202 48.67064956515611 H 0.0 **** 0.06
5885 H 93.3903798608187 27.807732761483972 48.44280274880472 H 0.0 **** 0.06
5886 C 83.8171974766856 75.83761736279543 100.57200128422893 C 0.0 **** -0.24
5887 H 84.4240305403558 75.77414151630163 99.66848638086344 H 0.0 **** 0.06
5888 H 84.4671432731916 75.82836053248447 101.44742947443925 H 0.0 **** 0.06
5889 H 83.13822896804587 74.9860445710939 100.61406367439174 H 0.0 **** 0.06
5890 H 83.24006992869508 76.76186152641641 100.55729755016536 H 0.0 **** 0.06
5891 C 54.58475075520664 100.23388008931789 23.525468403273607 C 0.0 **** -0.24
5892 H 55.34669748761257 100.96176152739154 23.246515897778636 H 0.0 **** 0.06
5893 H 53.598758292298925 100.62595472009008 23.274627641995068 H 0.0 **** 0.06
5894 H 54.63909241416698 100.0437991085128 24.596884691234237 H 0.0 **** 0.06
5895 H 54.75515341125663 99.30413729552713 22.981975980549038 H 0.0 **** 0.06
5896 C 60.50645617784693 66.72634124457659 10.507162089061651 C 0.0 **** -0.24
5897 H 59.83510867488059 66.20356546989468 9.825403510896109 H 0.0 **** 0.06
5898 H 61.51365633697736 66.32131739260028 10.406602408489704 H 0.0 **** 0.06
5899 H 60.16010981180332 66.58981044743221 11.531960252556303 H 0.0 **** 0.06
5900 H 60.51563265259631 67.7887554014603 10.265452307019686 H 0.0 **** 0.06
5901 C 104.71522500334409 89.92493067774265 65.51676527645598 C 0.0 **** -0.24
5902 H 105.63318791806988 89.55056835685292 65.06315567730952 H 0.0 **** 0.06
5903 H 104.248410082383 90.64898701823012 64.84822133645913 H 0.0 **** 0.06
5904 H 104.9496423707406 90.40499436249087 66.46689267113564 H 0.0 **** 0.06
5905 H 104.03065425262005 89.09431536472127 65.68931615850595 H 0.0 **** 0.06
5906 C 46.119281245572076 102.4251835044762 14.980852727528031 C 0.0 **** -0.24
5907 H 45.0867395261629 102.77432671988241 15.000174594748216 H 0.0 **** 0.06
5908 H 46.48031149671042 102.41519905306043 13.952409643355168 H 0.0 **** 0.06
5909 H 46.17063596211795 101.41804308637526 15.394780967615759 H 0.0 **** 0.06
5910 H 46.73980448903351 103.09517999093366 15.577389732186418 H 0.0 **** 0.06
5911 C 92.36886496945843 17.316171583615585 4.740678387690975 C 0.0 **** -0.24
5912 H 92.95202545984837 17.173625015936153 5.649774624710199 H 0.0 **** 0.06
5913 H 91.42265833304087 17.798631811087375 4.987809700056177 H 0.0 **** 0.06
5914 H 92.17469590910248 16.34919251832116 4.278485256091795 H 0.0 **** 0.06
5915 H 92.92717292283221 17.945187662938224 4.046675685858795 H 0.0 **** 0.06
5916 C 38.517647899497774 101.80633356991702 96.94314304235499 C 0.0 **** -0.24
5917 H 38.85204260502684 102.40082652759232 97.79432521289542 H 0.0 **** 0.06
5918 H 39.38288721764698 101.46852156252118 96.37383151025622 H 0.0 **** 0.06
5919 H 37.87729425528457 102.41546150878371 96.30516963258401 H 0.0 **** 0.06
5920 H 37.95705012870877 100.94248769059799 97.30214610973701 H 0.0 **** 0.06
5921 C 54.093285355696935 52.57549203881055 37.46506041834121 C 0.0 **** -0.24
5922 H 55.12029687680288 52.89379485388961 37.64333927068708 H 0.0 **** 0.06
5923 H 53.58594456321356 53.3150676953991 36.84424969626785 H 0.0 **** 0.06
5924 H 53.5706203090337 52.481119226595766 38.41723096857049 H 0.0 **** 0.06
5925 H 54.09470772816104 51.612162754311086 36.95471603455624 H 0.0 **** 0.06
5926 C 37.20046858621196 4.247846498832345 90.5588787916873 C 0.0 **** -0.24
5927 H 37.729187056241464 4.859515455351286 89.82773066607437 H 0.0 **** 0.06
5928 H 37.76144023608335 3.3301913527801474 90.73825712807925 H 0.0 **** 0.06
5929 H 36.210565835767675 4.001026960188639 90.17632902445042 H 0.0 **** 0.06
5930 H 37.10102364945114 4.802690376772063 91.49188344827013 H 0.0 **** 0.06
5931 C 100.63406578681982 75.0971410540511 28.00865119042373 C 0.0 **** -0.24
5932 H 100.6629515600447 76.17556845128506 27.856048361545326 H 0.0 **** 0.06
5933 H 100.43935006231614 74.59996620001662 27.05781539582258 H 0.0 **** 0.06
5934 H 99.84122504519148 74.85181186602117 28.71566737171758 H 0.0 **** 0.06
5935 H 101.59179975205392 74.76091397990749 28.40489944277057 H 0.0 **** 0.06
5936 C 1.6073587080601612 15.209210801105442 42.55660337258462 C 0.0 **** -0.24
5937 H 2.230888347035574 14.463599313171443 42.06367945644536 H 0.0 **** 0.06
5938 H 1.5230196722292533 14.968030363029413 43.616927708865774 H 0.0 **** 0.06
5939 H 0.6155366521183225 15.208765390711136 42.10412957893652 H 0.0 **** 0.06
5940 H 2.0591751380496817 16.194541917973595 42.44251477660566 H 0.0 **** 0.06
5941 C 3.671219205993509 46.6607611764918 11.066698007387416 C 0.0 **** -0.24
5942 H 4.624035702108671 46.92993942437138 10.61279446925873 H 0.0 **** 0.06
5943 H 2.907695434580603 46.5877537546894 10.292619816132103 H 0.0 **** 0.06
5944 H 3.3851345154231467 47.42437360770788 11.789633196801859 H 0.0 **** 0.06
5945 H 3.768400068912399 45.6993635857001 11.572859388435845 H 0.0 **** 0.06
5946 C 23.34661906434198 94.11897782620994 77.36764957049427 C 0.0 **** -0.24
5947 H 23.98934683280907 94.62558726803755 78.08693988157346 H 0.0 **** 0.06
5948 H 22.879266548513655 93.25623301563809 77.84271350330167 H 0.0 **** 0.06
5949 H 23.944540660014994 93.787068984185 76.51735190969663 H 0.0 **** 0.06
5950 H 22.574431868688414 94.80687976423988 77.02227065326016 H 0.0 **** 0.06
5951 C 30.980126163274775 0.07454730341456184 60.97512247439818 C 0.0 **** -0.24
5952 H 30.309078955415742 0.10989136306923797 60.116449553545024 H 0.0 **** 0.06
5953 H 31.026437779049417 -0.9446530196437948 61.358283831643064 H 0.0 **** 0.06
5954 H 30.609216678218573 0.7398383648254594 61.754136348629714 H 0.0 **** 0.06
5955 H 31.97693900581254 0.3934409950601889 60.668876291883436 H 0.0 **** 0.06
5956 C 2.842746657840422 39.09291258332638 77.10734482469186 C 0.0 **** -0.24
5957 H 3.8573453294691546 38.694192005695555 77.10774099493764 H 0.0 **** 0.06
5958 H 2.293605091041684 38.689883574933106 77.95825484475651 H 0.0 **** 0.06
5959 H 2.3404299756035982 38.80821214825423 76.18263982494915 H 0.0 **** 0.06
5960 H 2.8803673672422576 40.17989128154687 77.17967533141399 H 0.0 **** 0.06
5961 C 16.125460219530552 82.61329614946624 90.65534332974562 C 0.0 **** -0.24
5962 H 16.239066284422336 83.6967477753004 90.60911583811901 H 0.0 **** 0.06
5963 H 17.10807462447437 82.14829332536937 90.73462768750966 H 0.0 **** 0.06
5964 H 15.628350825203952 82.26062941626247 89.7524235821407 H 0.0 **** 0.06
5965 H 15.527161587518776 82.34851839747625 91.52703145478151 H 0.0 **** 0.06
5966 C 57.51193993856943 61.78962490813291 101.04048582674511 C 0.0 **** -0.24
5967 H 56.745710399725716 61.3868140532324 100.37783702605063 H 0.0 **** 0.06
5968 H 58.075134770074285 62.5620408379948 100.51631701638838 H 0.0 **** 0.06
5969 H 58.186684013040356 60.98951635653634 101.34483832965955 H 0.0 **** 0.06
5970 H 57.03802037636563 62.22118381209407 101.92291368985423 H 0.0 **** 0.06
5971 C 47.737581028994505 18.430544607512317 4.591312165189862 C 0.0 **** -0.24
5972 H 48.75780296150149 18.111623049104878 4.382255065714446 H 0.0 **** 0.06
5973 H 47.08263921123594 17.558779932759577 4.618686363482809 H 0.0 **** 0.06
5974 H 47.40305244863196 19.11260805924843 3.8102771214968527 H 0.0 **** 0.06
5975 H 47.705737692035974 18.93903935477789 5.554919866488348 H 0.0 **** 0.06
5976 C 104.98630522669768 0.2919741060554628 44.939602727323575 C 0.0 **** -0.24
5977 H 104.37080793852338 -0.3058808197434928 44.26774168286718 H 0.0 **** 0.06
5978 H 104.53788857625568 1.2786146688852398 45.060976811693024 H 0.0 **** 0.06
5979 H 105.98671751902981 0.3957218753862577 44.52109073195027 H 0.0 **** 0.06
5980 H 105.04787913065547 -0.20084166833039774 45.90969909248915 H 0.0 **** 0.06
5981 C 64.20489079863023 79.33118316652786 34.568807723646756 C 0.0 **** -0.24
5982 H 65.17032999233936 79.01629234962337 34.964000856062455 H 0.0 **** 0.06
5983 H 63.936422973043875 78.70030425639118 33.72056212020027 H 0.0 **** 0.06
5984 H 64.26558696931198 80.36955344168413 34.24520026779936 H 0.0 **** 0.06
5985 H 63.44557962110218 79.23718898350425 35.346064696358525 H 0.0 **** 0.06
5986 C 87.38317895056181 103.07450824559481 4.354640081617873 C 0.0 **** -0.24
5987 H 87.68392257994375 102.60957679006762 5.292872815231178 H 0.0 **** 0.06
5988 H 86.37150526806224 102.75498874149542 4.100112169802628 H 0.0 **** 0.06
5989 H 88.06965263651028 102.77413474912396 3.5625584043652623 H 0.0 **** 0.06
5990 H 87.40469522722495 104.15879993577022 4.462747785214759 H 0.0 **** 0.06
5991 C 66.57198082361214 13.926031888340475 90.14256958225062 C 0.0 **** -0.24
5992 H 65.73072255026415 14.027643902543339 89.4560593636854 H 0.0 **** 0.06
5993 H 66.31423709880966 14.376961949724414 91.10070994019861 H 0.0 **** 0.06
5994 H 67.44328951976723 14.430885882168464 89.72583550547515 H 0.0 **** 0.06
5995 H 66.79735615084729 12.869491227429421 90.2862966980545 H 0.0 **** 0.06
5996 C 9.619242979438411 58.81610928548128 10.917493911057818 C 0.0 **** -0.24
5997 H 8.722480640677645 58.768233260140036 10.298489894852992 H 0.0 **** 0.06
5998 H 9.58414893665757 58.026106483760216 11.667573694776138 H 0.0 **** 0.06
5999 H 9.667648619357465 59.785984866870294 11.412587799840765 H 0.0 **** 0.06
6000 H 10.500166705602823 58.68362057313115 10.289783935116475 H 0.0 **** 0.06
6001 C 40.1300983807389 47.06865615456849 21.131001113347423 C 0.0 **** -0.24
6002 H 40.99096498527922 46.44002123534875 20.901517839095305 H 0.0 **** 0.06
6003 H 40.4685785307463 48.081430806780304 21.352864728494666 H 0.0 **** 0.06
6004 H 39.604502012464025 46.66279965468425 21.99542327338557 H 0.0 **** 0.06
6005 H 39.45736550907776 47.089830038053606 20.273380056540844 H 0.0 **** 0.06
6006 C 17.24513467873942 78.81289634048261 88.37317121808383 C 0.0 **** -0.24
6007 H 16.155880728960994 78.81692708080013 88.33145432467262 H 0.0 **** 0.06
6008 H 17.646725862202402 78.840728346704 87.35995079093243 H 0.0 **** 0.06
6009 H 17.586047769528534 77.90724726133254 88.87481124389006 H 0.0 **** 0.06
6010 H 17.591430847803906 79.68688239623435 88.92480881988678 H 0.0 **** 0.06
6011 C 51.93829494657797 0.3460967529335619 42.66233246388566 C 0.0 **** -0.24
6012 H 52.94039674581347 0.635459761848395 42.34540068368162 H 0.0 **** 0.06
6013 H 51.24987506616338 0.44091966507158986 41.82207808011313 H 0.0 **** 0.06
6014 H 51.61222961697399 0.9965406990808674 43.473551147084805 H 0.0 **** 0.06
6015 H 51.950375345142845 -0.6870154264864254 43.0075221622121 H 0.0 **** 0.06
6016 C 23.128783826206018 104.72886040768118 85.38843690744676 C 0.0 **** -0.24
6017 H 24.141104432466932 104.55615822169722 85.02257126325986 H 0.0 **** 0.06
6018 H 22.96435364522003 104.14398395922075 86.29284440154123 H 0.0 **** 0.06
6019 H 22.411383238694242 104.42743415153255 84.62508225699895 H 0.0 **** 0.06
6020 H 22.999594640417882 105.78838154006773 85.61123921671896 H 0.0 **** 0.06
6021 C 8.6115083461425 99.0906423076286 23.673741038389267 C 0.0 **** -0.24
6022 H 9.502809936758126 99.69118697857031 23.85865543372364 H 0.0 **** 0.06
6023 H 8.634004470227012 98.20327588960264 24.307413299580446 H 0.0 **** 0.06
6024 H 8.587862483270158 98.78932381894857 22.62705450763528 H 0.0 **** 0.06
6025 H 7.723240343833822 99.67866971807834 23.90340253284174 H 0.0 **** 0.06
6026 C 12.429028257823518 36.72356327392259 53.0488523023339 C 0.0 **** -0.24
6027 H 11.365095017223226 36.82539460211939 52.83522613156566 H 0.0 **** 0.06
6028 H 12.977435165789828 36.60025799103647 52.11507429431816 H 0.0 **** 0.06
6029 H 12.589866240721847 35.85258548571056 53.68392200585771 H 0.0 **** 0.06
6030 H 12.782027309857256 37.617955027715084 53.56273048917649 H 0.0 **** 0.06
6031 C 73.14764857145371 18.413395219385944 55.3783723163981 C 0.0 **** -0.24
6032 H 73.08963715100793 18.6284790819586 54.31115240624291 H 0.0 **** 0.06
6033 H 73.2540814775397 17.33875103808631 55.52690054301536 H 0.0 **** 0.06
6034 H 72.23658368135926 18.760615165689092 55.86734251530709 H 0.0 **** 0.06
6035 H 74.00785244826676 18.926694692504025 55.806634607696196 H 0.0 **** 0.06
6036 C 57.165006867573034 61.589614878345515 92.92190151256891 C 0.0 **** -0.24
6037 H 57.95736717871903 61.010556194567755 92.4472280440315 H 0.0 **** 0.06
6038 H 56.37664790245662 61.789676460245516 92.19727392231502 H 0.0 **** 0.06
6039 H 57.572918002969374 62.533402764108075 93.2857774604331 H 0.0 **** 0.06
6040 H 56.75436496367478 61.025218664740464 93.75938337416848 H 0.0 **** 0.06
6041 C 89.41958643460515 52.17513441954043 41.73740591724152 C 0.0 **** -0.24
6042 H 88.66750122110625 51.4007778943041 41.890414207671455 H 0.0 **** 0.06
6043 H 90.40049166696139 51.711570233462794 41.6248050581938 H 0.0 **** 0.06
6044 H 89.43022185151324 52.84626255891652 42.59586883855263 H 0.0 **** 0.06
6045 H 89.1789537128862 52.74095311751802 40.83724492459655 H 0.0 **** 0.06
6046 C 70.12585177890831 100.12410133017721 85.42108402138132 C 0.0 **** -0.24
6047 H 70.17102613365142 101.19514844265947 85.2225365689552 H 0.0 **** 0.06
6048 H 69.1077596416412 99.84950687272249 85.69711842417226 H 0.0 **** 0.06
6049 H 70.80372548198318 99.8773513814013 86.23806713108837 H 0.0 **** 0.06
6050 H 70.41982465602834 99.57568777185796 84.52617719899035 H 0.0 **** 0.06
6051 C 78.18734540447701 87.29261819230508 3.723433056126993 C 0.0 **** -0.24
6052 H 77.47580175165814 87.9683364165883 4.199253687954425 H 0.0 **** 0.06
6053 H 77.84363226886933 87.05473081615582 2.7165320650274793 H 0.0 **** 0.06
6054 H 78.26406566041564 86.37632520165083 4.307513356266014 H 0.0 **** 0.06
6055 H 79.16390009341211 87.77300892357219 3.671027429958926 H 0.0 **** 0.06
6056 C 53.6073364292846 33.61562942589996 20.506149671816928 C 0.0 **** -0.24
6057 H 52.74401825511643 33.91617655457609 21.098510869781563 H 0.0 **** 0.06
6058 H 53.359990758940654 32.725336338956424 19.92780111381296 H 0.0 **** 0.06
6059 H 54.444718473650425 33.3982696012622 21.16915021634705 H 0.0 **** 0.06
6060 H 53.882152104354674 34.424635830473875 19.828949027255433 H 0.0 **** 0.06
6061 C 59.162324111768825 28.873425477276868 99.4427821748543 C 0.0 **** -0.24
6062 H 59.31958937780662 28.24264515340988 98.56745106066927 H 0.0 **** 0.06
6063 H 59.56726894603748 29.86686430417072 99.25155545992698 H 0.0 **** 0.06
6064 H 59.66805143150592 28.43274875451897 100.30215265866917 H 0.0 **** 0.06
6065 H 58.09457393161704 28.948483390702222 99.6495201403203 H 0.0 **** 0.06
6066 C 12.365502407170961 14.853616323239777 19.862536868830887 C 0.0 **** -0.24
6067 H 11.726900048838752 15.517570610805961 20.446344630547372 H 0.0 **** 0.06
6068 H 12.15417071867708 14.988463270807614 18.80135311248779 H 0.0 **** 0.06
6069 H 12.168724565426093 13.819340020536544 20.144074965690777 H 0.0 **** 0.06
6070 H 13.410422078199815 15.091693136461458 20.05851382170266 H 0.0 **** 0.06
6071 C 33.160334158988206 97.46362835354844 17.588953116284017 C 0.0 **** -0.24
6072 H 32.35190272144891 97.25817649812322 18.29102425197047 H 0.0 **** 0.06
6073 H 33.59972872499188 96.52359331721254 17.256502797967357 H 0.0 **** 0.06
6074 H 33.922019209059215 98.06837154945143 18.080983860037833 H 0.0 **** 0.06
6075 H 32.76523756122208 98.00566062227756 16.729386111660588 H 0.0 **** 0.06
6076 C 67.52408498208423 60.40568280340145 11.508179793818243 C 0.0 **** -0.24
6077 H 66.5878717871166 60.701873126002425 11.035532111709188 H 0.0 **** 0.06
6078 H 67.54386758315727 60.772091493256994 12.534885719961437 H 0.0 **** 0.06
6079 H 68.36079031625495 60.83035541252241 10.953947854315771 H 0.0 **** 0.06
6080 H 67.60285143632686 59.31816430200297 11.508494160715657 H 0.0 **** 0.06
6081 C 1.733953865820772 7.4339050164485485 63.29850235149638 C 0.0 **** -0.24
6082 H 2.788037482591764 7.651599458768416 63.47218767357498 H 0.0 **** 0.06
6083 H 1.3359219507401097 8.131506539558998 62.56140912147032 H 0.0 **** 0.06
6084 H 1.1836828511146011 7.5383077780971774 64.23380636566844 H 0.0 **** 0.06
6085 H 1.6303091160966403 6.414555412176114 62.92716848679203 H 0.0 **** 0.06
6086 C 26.141034360940353 24.565622441981986 39.05747101766363 C 0.0 **** -0.24
6087 H 25.343091795290775 23.970645204527955 38.61305402725512 H 0.0 **** 0.06
6088 H 27.106873608501132 24.159314562792588 38.75966051699791 H 0.0 **** 0.06
6089 H 26.052831732704817 24.537781280578884 40.14306340232284 H 0.0 **** 0.06
6090 H 26.058928453881606 25.597112611294108 38.712495029414555 H 0.0 **** 0.06
6091 C 23.577817883495356 18.66389534155931 104.79897603558273 C 0.0 **** -0.24
6092 H 22.65071732589871 18.390637599778984 105.30498647813747 H 0.0 **** 0.06
6093 H 23.41575247735807 19.565791316389976 104.20726475436268 H 0.0 **** 0.06
6094 H 23.88614489029345 17.849915210782058 104.14393142118658 H 0.0 **** 0.06
6095 H 24.354616032533784 18.84914324426856 105.54053623970212 H 0.0 **** 0.06
6096 C 67.38958247967763 81.98684032235508 81.35876579443013 C 0.0 **** -0.24
6097 H 67.92416453537557 81.19988589247168 80.82641583877884 H 0.0 **** 0.06
6098 H 67.2061647380673 82.82125777932146 80.68191932524851 H 0.0 **** 0.06
6099 H 67.9913767600647 82.32710143794245 82.20148325881223 H 0.0 **** 0.06
6100 H 66.43967476638484 81.59745655905397 81.72385248046533 H 0.0 **** 0.06
6101 C 72.96854809655963 46.18906722655379 80.61996086668799 C 0.0 **** -0.24
6102 H 72.59770319321004 46.45168437582839 79.62950694562161 H 0.0 **** 0.06
6103 H 73.62237415161593 45.31984742225069 80.5441442458864 H 0.0 **** 0.06
6104 H 72.12732413356059 45.955006355542366 81.27268628979874 H 0.0 **** 0.06
6105 H 73.52645787776055 47.02839649303388 81.03317593320574 H 0.0 **** 0.06
6106 C 21.37543382411128 67.7875659034151 12.916585785822758 C 0.0 **** -0.24
6107 H 22.142800446000912 68.1147515437824 13.617621232208712 H 0.0 **** 0.06
6108 H 20.913821781648757 66.87123437271865 13.2846897957883 H 0.0 **** 0.06
6109 H 21.8292200218522 67.60112173200238 11.94270673174083 H 0.0 **** 0.06
6110 H 20.616080213672312 68.56392271813209 12.820711295173211 H 0.0 **** 0.06
6111 C 19.649038517561706 93.23926824843899 0.6349489045753671 C 0.0 **** -0.24
6112 H 18.747484677246547 93.38014915719248 1.2314268715077787 H 0.0 **** 0.06
6113 H 20.52026750900049 93.53708969763338 1.2185602025022035 H 0.0 **** 0.06
6114 H 19.58778729697795 93.85167990229772 -0.26573919383730527 H 0.0 **** 0.06
6115 H 19.740058962527982 92.19047151196642 0.35498047034633373 H 0.0 **** 0.06
6116 C 101.60218397869372 93.36429781437886 28.440294308674964 C 0.0 **** -0.24
6117 H 100.61973223149403 93.61428451961461 28.037664208224953 H 0.0 **** 0.06
6118 H 102.28084710358848 94.20302432080324 28.288482349003544 H 0.0 **** 0.06
6119 H 101.99049358539872 92.4843847434545 27.927615721690614 H 0.0 **** 0.06
6120 H 101.51447810022336 93.15464272523428 29.505646861424964 H 0.0 **** 0.06
6121 C 89.49458739861487 86.5973340225741 96.7752528193246 C 0.0 **** -0.24
6122 H 90.48944321052997 86.27504461823024 96.46943732607323 H 0.0 **** 0.06
6123 H 89.5728829550142 87.21272178304066 97.67231663216211 H 0.0 **** 0.06
6124 H 88.87909676510472 85.72295595477613 96.9877945846716 H 0.0 **** 0.06
6125 H 89.03731437000991 87.17780743706292 95.97449588938747 H 0.0 **** 0.06
6126 C 80.37523712100406 103.40921540181537 39.37207346770287 C 0.0 **** -0.24
6127 H 80.16585900234689 104.37917184262145 39.8222878376185 H 0.0 **** 0.06
6128 H 81.42345001508257 103.15367957586986 39.530323027468064 H 0.0 **** 0.06
6129 H 80.17037173810265 103.45337468633736 38.30193848272118 H 0.0 **** 0.06
6130 H 79.74230852784156 102.65036563687364 39.832386565927244 H 0.0 **** 0.06
6131 C 103.13699194666287 93.95224091125885 39.61034213837867 C 0.0 **** -0.24
6132 H 103.74293200212419 94.75801617249022 39.196586699598896 H 0.0 **** 0.06
6133 H 103.42989301189843 93.0064785441005 39.15331559049783 H 0.0 **** 0.06
6134 H 102.08472778550066 94.14577174546565 39.40219398027132 H 0.0 **** 0.06
6135 H 103.29015283696413 93.89829293456279 40.68839598036913 H 0.0 **** 0.06
6136 C 61.20593370047965 8.702989283684985 28.465588321864516 C 0.0 **** -0.24
6137 H 61.731059183630265 8.157232593880394 27.681570733787268 H 0.0 **** 0.06
6138 H 60.1304320459561 8.628579335839675 28.302312191468914 H 0.0 **** 0.06
6139 H 61.505478136506355 9.750766835689433 28.442263658621556 H 0.0 **** 0.06
6140 H 61.45694933490353 8.274406060809255 29.43635107572817 H 0.0 **** 0.06
6141 C 59.12284498695393 77.19141556629015 57.99178949226092 C 0.0 **** -0.24
6142 H 58.22285456137093 76.58130896914714 57.910451219040795 H 0.0 **** 0.06
6143 H 59.91713658450591 76.6068367505578 58.45527103809195 H 0.0 **** 0.06
6144 H 58.91231259887506 78.06897729110123 58.603287041068256 H 0.0 **** 0.06
6145 H 59.43691871513349 77.50847058759486 56.99756492351145 H 0.0 **** 0.06
6146 C 58.914378039745344 23.744149171140748 103.75463793806114 C 0.0 **** -0.24
6147 H 57.896369275986075 23.443993188242445 104.00234792167223 H 0.0 **** 0.06
6148 H 59.34210530815011 23.03146559125034 103.04895228495522 H 0.0 **** 0.06
6149 H 59.51816529304986 23.76345937254996 104.662153114333 H 0.0 **** 0.06
6150 H 58.90180856118792 24.737096622813908 103.30598435119472 H 0.0 **** 0.06
6151 C 3.0596403599094604 74.14596965161401 53.128564677093124 C 0.0 **** -0.24
6152 H 3.9468617927375202 74.11321389132604 52.49699532137544 H 0.0 **** 0.06
6153 H 2.7573955769585066 73.12955326580034 53.38101770831926 H 0.0 **** 0.06
6154 H 2.2512494171633097 74.6443642610564 52.59427208859705 H 0.0 **** 0.06
6155 H 3.284812444162169 74.69543511342229 54.04240816950616 H 0.0 **** 0.06
6156 C 30.379525984292286 94.05938079248978 33.302804423108626 C 0.0 **** -0.24
6157 H 29.857546600558635 93.8073664195542 34.22568305356046 H 0.0 **** 0.06
6158 H 31.35546893111581 93.57281694605008 33.29271726358053 H 0.0 **** 0.06
6159 H 30.510269148096228 95.13989610341305 33.24297467193975 H 0.0 **** 0.06
6160 H 29.793732643668648 93.71653851543901 32.44984132380117 H 0.0 **** 0.06
6161 C 54.73173411348887 90.94117277256728 99.95437282275219 C 0.0 **** -0.24
6162 H 54.09928767109446 91.26550559808706 99.12767551032687 H 0.0 **** 0.06
6163 H 54.73753380589423 89.85262437153463 100.00115322497493 H 0.0 **** 0.06
6164 H 54.34172878376256 91.34417159234644 100.8894725709743 H 0.0 **** 0.06
6165 H 55.74706039210295 91.30474856343582 99.79836683647414 H 0.0 **** 0.06
6166 C 65.32399712187473 41.832577237738846 97.79421332275858 C 0.0 **** -0.24
6167 H 65.9559447840916 42.62521205652632 97.39406849021353 H 0.0 **** 0.06
6168 H 64.27609314939045 42.12012520284497 97.6981288405448 H 0.0 **** 0.06
6169 H 65.56273489176097 41.67310998330751 98.844992133124 H 0.0 **** 0.06
6170 H 65.49988584545936 40.912002022455 97.23787158568949 H 0.0 **** 0.06
6171 C 56.957591184008656 82.04864240736585 31.53972387956472 C 0.0 **** -0.24
6172 H 56.63362656770809 81.90842948593024 30.50882333269962 H 0.0 **** 0.06
6173 H 58.01007065781247 82.32992268549587 31.554824263901594 H 0.0 **** 0.06
6174 H 56.820571144042795 81.11819918942305 32.09234555521479 H 0.0 **** 0.06
6175 H 56.363109201558935 82.83629926856855 32.00325227672826 H 0.0 **** 0.06
6176 C 104.24681757010477 23.239386752198044 18.228690165381437 C 0.0 **** -0.24
6177 H 104.38640035064097 23.60405283348277 19.24674470248526 H 0.0 **** 0.06
6178 H 103.91266470831503 24.058198654067155 17.591502090809144 H 0.0 **** 0.06
6179 H 103.49784500253105 22.447790749836514 18.22709467627378 H 0.0 **** 0.06
6180 H 105.19169660913155 22.846222948328005 17.851779574398066 H 0.0 **** 0.06
6181 C 33.54741071654831 17.82699544593187 27.8490682731784 C 0.0 **** -0.24
6182 H 32.717079409055714 17.944493455452005 28.545427984863053 H 0.0 **** 0.06
6183 H 33.49915918106697 18.610584588806518 27.091542928623692 H 0.0 **** 0.06
6184 H 33.48244852869273 16.851885587199547 27.367934909887346 H 0.0 **** 0.06
6185 H 34.489765536416 17.902904130348304 28.391203822740867 H 0.0 **** 0.06
6186 C 44.83073298568263 20.3079959764913 86.71991904801592 C 0.0 **** -0.24
6187 H 45.410221344331475 20.55079959708698 85.8289059296095 H 0.0 **** 0.06
6188 H 44.73793592574899 19.22523324830766 86.80918453201711 H 0.0 **** 0.06
6189 H 43.8389136417544 20.75323521254583 86.64029413169389 H 0.0 **** 0.06
6190 H 45.337313732754836 20.70336025797789 87.60060273644581 H 0.0 **** 0.06
6191 C 24.84333415340018 25.06887818168365 43.47796598149486 C 0.0 **** -0.24
6192 H 24.00660141838368 25.63368173772973 43.889838547885205 H 0.0 **** 0.06
6193 H 25.707340115667833 25.725498694248586 43.375073253785956 H 0.0 **** 0.06
6194 H 24.568119283900813 24.673681819498157 42.50018005760862 H 0.0 **** 0.06
6195 H 25.089359194791996 24.2448289059547 44.147534625083665 H 0.0 **** 0.06
6196 C 92.69938536528406 105.92832640218539 60.69289888117119 C 0.0 **** -0.24
6197 H 92.73877745906978 106.46359865336656 59.745040498441696 H 0.0 **** 0.06
6198 H 93.70114996994502 105.87245296034526 61.12027529368578 H 0.0 **** 0.06
6199 H 92.31947679311176 104.92018022889526 60.525861460751116 H 0.0 **** 0.06
6200 H 92.03869734509755 106.4554388484426 61.38053430393114 H 0.0 **** 0.06
6201 C 10.52514364702391 67.82766242977407 39.96108803236828 C 0.0 **** -0.24
6202 H 11.460706379574347 67.80332116314192 39.40371426968841 H 0.0 **** 0.06
6203 H 9.712819703465627 68.11831569077414 39.29484092659601 H 0.0 **** 0.06
6204 H 10.60591461034663 68.55082772436742 40.77281750023133 H 0.0 **** 0.06
6205 H 10.321733609865177 66.83945167715163 40.37317000979155 H 0.0 **** 0.06
6206 C 57.04434796891135 80.2163149340636 78.1967469025248 C 0.0 **** -0.24
6207 H 56.0648555204275 80.05771771372432 78.64778810625344 H 0.0 **** 0.06
6208 H 57.800904745410804 80.26749726598447 78.9804087984501 H 0.0 **** 0.06
6209 H 57.037976152546975 81.15059542279468 77.6347005445707 H 0.0 **** 0.06
6210 H 57.2723317859795 79.38902636448489 77.52382732354322 H 0.0 **** 0.06
6211 C 11.536597108808198 63.66291210696076 62.584687497609906 C 0.0 **** -0.24
6212 H 10.694425397000987 63.0361760929259 62.289634061602555 H 0.0 **** 0.06
6213 H 11.671716962569409 63.60428993272032 63.66478924411385 H 0.0 **** 0.06
6214 H 11.336726023626555 64.6962285035647 62.298896421215915 H 0.0 **** 0.06
6215 H 12.440318682519706 63.31581710409287 62.08534892419627 H 0.0 **** 0.06
6216 C 86.80131533737028 21.940726410972502 35.7592225548041 C 0.0 **** -0.24
6217 H 87.62653957876088 21.231930463230555 35.69831346813794 H 0.0 **** 0.06
6218 H 86.16893465698587 21.838063220326305 34.876950099131875 H 0.0 **** 0.06
6219 H 87.19580964334102 22.955174056634874 35.80790394609275 H 0.0 **** 0.06
6220 H 86.21294755334424 21.736023462920002 36.65371054522984 H 0.0 **** 0.06
6221 C 6.099778766333046 47.57215356163933 1.5375852445998248 C 0.0 **** -0.24
6222 H 5.710209011578428 46.555588331959136 1.4945713236624556 H 0.0 **** 0.06
6223 H 5.484429838100382 48.16873469503757 2.210458426641935 H 0.0 **** 0.06
6224 H 6.0780025363996515 48.01120579275273 0.5398690184278792 H 0.0 **** 0.06
6225 H 7.126567093877114 47.55321483391196 1.9032117931698735 H 0.0 **** 0.06
6226 C 17.342976392647188 92.50709754509468 13.53599343856932 C 0.0 **** -0.24
6227 H 16.99614025642782 92.7253800677287 12.526297884889146 H 0.0 **** 0.06
6228 H 16.90870620783764 93.22423203506641 14.232298127049052 H 0.0 **** 0.06
6229 H 18.429911186150335 92.57942822493351 13.57036963150702 H 0.0 **** 0.06
6230 H 17.036745376497677 91.4981030173022 13.814475708446537 H 0.0 **** 0.06
6231 C 4.3760344140552405 50.490136795183574 14.738458228105586 C 0.0 **** -0.24
6232 H 4.468594898839015 50.73436218155381 13.68034093222981 H 0.0 **** 0.06
6233 H 4.971183913078519 49.60478164995807 14.960079538201626 H 0.0 **** 0.06
6234 H 3.329871363351387 50.29406848296506 14.975976335571232 H 0.0 **** 0.06
6235 H 4.733723106818815 51.328423182384505 15.336955073897784 H 0.0 **** 0.06
6236 C 44.68802533128616 32.40279654757932 46.615194610043034 C 0.0 **** -0.24
6237 H 44.66457042480147 31.76671886998266 47.49971919210503 H 0.0 **** 0.06
6238 H 43.74351838147682 32.31145028901919 46.077552299321155 H 0.0 **** 0.06
6239 H 45.507831523231225 32.09290968665579 45.9665061752234 H 0.0 **** 0.06
6240 H 44.83618099563497 33.440107344659495 46.91700077352243 H 0.0 **** 0.06
6241 C 88.90322239722047 73.60421200810407 15.636065588614372 C 0.0 **** -0.24
6242 H 89.65300243338123 74.11606917535084 15.033741927738845 H 0.0 **** 0.06
6243 H 88.98404705687224 73.932256515951 16.672164455298613 H 0.0 **** 0.06
6244 H 89.0667945532266 72.52730876610195 15.580853905940117 H 0.0 **** 0.06
6245 H 87.90900254489131 73.84026425195628 15.255477919504415 H 0.0 **** 0.06
6246 C 25.642878561070745 72.76320591146305 1.6611559072184718 C 0.0 **** -0.24
6247 H 26.082651515507393 73.31282956783 2.4937196088825146 H 0.0 **** 0.06
6248 H 26.215006206427887 71.85266400525133 1.4837747032934487 H 0.0 **** 0.06
6249 H 25.66031834068147 73.38447825232916 0.7655286102975651 H 0.0 **** 0.06
6250 H 24.611848007627373 72.50377622309232 1.9027360573149394 H 0.0 **** 0.06
6251 C 35.6676495531617 41.17753262476549 88.11247093459346 C 0.0 **** -0.24
6252 H 34.749490780417894 41.65813552292752 88.45157426729526 H 0.0 **** 0.06
6253 H 36.46191865814489 41.361915915060564 88.83541219836933 H 0.0 **** 0.06
6254 H 35.95416422813047 41.58704347428278 87.1437269439378 H 0.0 **** 0.06
6255 H 35.50231086295466 40.104462046025276 88.01839470056501 H 0.0 **** 0.06
6256 C 60.10125098910229 106.26317979846863 71.80854320409168 C 0.0 **** -0.24
6257 H 59.23777060968762 106.2087064224495 71.1465372118397 H 0.0 **** 0.06
6258 H 60.99841522776872 105.97372865074391 71.26148007901679 H 0.0 **** 0.06
6259 H 59.956225891649304 105.58916056244686 72.65201545433956 H 0.0 **** 0.06
6260 H 60.2135384308105 107.28456986246118 72.174617862677 H 0.0 **** 0.06
6261 C 97.13122681275416 0.005851195757742289 64.80900537052021 C 0.0 **** -0.24
6262 H 98.15785494323113 -0.12181103100512303 64.4663061925701 H 0.0 **** 0.06
6263 H 97.08539162558064 0.8300481129451782 65.52097889111823 H 0.0 **** 0.06
6264 H 96.7938081450998 -0.9119525510774054 65.29253894801558 H 0.0 **** 0.06
6265 H 96.48849987506543 0.22477513184315967 63.95648317841953 H 0.0 **** 0.06
6266 C 55.787000486262464 2.933866054296324 80.81571379232435 C 0.0 **** -0.24
6267 H 54.877477263008366 2.3432973780285042 80.92846076779607 H 0.0 **** 0.06
6268 H 56.59132759358067 2.4747053360419446 81.39131269063995 H 0.0 **** 0.06
6269 H 55.60941556740768 3.9457797545029365 81.18004053237486 H 0.0 **** 0.06
6270 H 56.067962900753656 2.9703830648226717 79.76296198971033 H 0.0 **** 0.06
6271 C 60.34187290150314 105.71109987593667 34.7425650782173 C 0.0 **** -0.24
6272 H 60.397676816394636 104.86014081137111 35.42111447294542 H 0.0 **** 0.06
6273 H 61.33543992238015 105.92857358889106 34.34946775235727 H 0.0 **** 0.06
6274 H 59.96463154069025 106.5804801027538 35.279790935428736 H 0.0 **** 0.06
6275 H 59.66942902984792 105.47400902780115 33.91802406422397 H 0.0 **** 0.06
6276 C 87.76764532969207 84.52418924255147 1.217942298204207 C 0.0 **** -0.24
6277 H 87.63057153645946 83.60478648542556 1.7872234728919807 H 0.0 **** 0.06
6278 H 88.5977254681203 84.39991561565938 0.5229439464382608 H 0.0 **** 0.06
6279 H 87.98652144825235 85.34490999701671 1.9017079288473724 H 0.0 **** 0.06
6280 H 86.85779831950481 84.74673820985475 0.6622796390698227 H 0.0 **** 0.06
6281 C 42.49101293254171 61.93966449372124 103.80328840682725 C 0.0 **** -0.24
6282 H 41.877507703571496 61.336936033862116 103.13364861986045 H 0.0 **** 0.06
6283 H 43.097380057311796 61.283768614372946 104.42929502760796 H 0.0 **** 0.06
6284 H 41.84661862649381 62.55107195396329 104.43468731869132 H 0.0 **** 0.06
6285 H 43.143698480682644 62.585056452342315 103.21493942108262 H 0.0 **** 0.06
6286 C 85.84913772028841 31.99162024833018 97.30723650204607 C 0.0 **** -0.24
6287 H 85.02598256327519 31.281961077892134 97.39489602853354 H 0.0 **** 0.06
6288 H 85.8762777466975 32.6281425505822 98.19189886951348 H 0.0 **** 0.06
6289 H 85.70410807126439 32.60705696429062 96.41949738134471 H 0.0 **** 0.06
6290 H 86.78985904038456 31.446901068671025 97.22244761365238 H 0.0 **** 0.06
6291 C 11.73554772996502 56.46146548616143 15.29694829550209 C 0.0 **** -0.24
6292 H 12.517492452908328 56.078844009769426 15.952798093470221 H 0.0 **** 0.06
6293 H 12.122808543077369 56.54348589356566 14.28052048108357 H 0.0 **** 0.06
6294 H 11.41911325999574 57.444046832191795 15.645722996753904 H 0.0 **** 0.06
6295 H 10.884991814442486 55.78043225802241 15.30830834707632 H 0.0 **** 0.06
6296 C 17.755979869607728 91.85227646997993 49.07788317235904 C 0.0 **** -0.24
6297 H 17.261705374615914 90.89480578516083 48.914447242370926 H 0.0 **** 0.06
6298 H 17.97498697770176 92.31597308828765 48.116311533403035 H 0.0 **** 0.06
6299 H 18.68530834437189 91.69210105149995 49.62449558360254 H 0.0 **** 0.06
6300 H 17.102042576237906 92.50507751844128 49.657094332851045 H 0.0 **** 0.06
6301 C 48.79374996777972 67.609757683706 22.97899027446249 C 0.0 **** -0.24
6302 H 47.94908626812747 67.67584335687013 22.294505399121277 H 0.0 **** 0.06
6303 H 48.47648305973897 67.12529306975455 23.90243786634366 H 0.0 **** 0.06
6304 H 49.1615328694574 68.6123089557251 23.201200686843848 H 0.0 **** 0.06
6305 H 49.59027825074301 67.02517765925859 22.517408592086838 H 0.0 **** 0.06
6306 C 33.6284377908558 65.69790936469013 24.693900915090552 C 0.0 **** -0.24
6307 H 33.93038514105723 65.41596174029318 23.684475280713286 H 0.0 **** 0.06
6308 H 33.485770787155616 66.77740713444416 24.741011302223228 H 0.0 **** 0.06
6309 H 34.402815113379376 65.40140336546986 25.40024968763933 H 0.0 **** 0.06
6310 H 32.694107567808544 65.19600617269676 24.947072729568205 H 0.0 **** 0.06
6311 C 87.90602747756043 35.43444925977508 3.60262901184997 C 0.0 **** -0.24
6312 H 87.06020678599165 35.598918629959144 2.9350169281492526 H 0.0 **** 0.06
6313 H 87.69368755329116 35.882813942869944 4.572885445896702 H 0.0 **** 0.06
6314 H 88.79847325930086 35.89289079736051 3.1769277329017314 H 0.0 **** 0.06
6315 H 88.06953432573209 34.36388951941541 3.7235381935658864 H 0.0 **** 0.06
6316 C 56.4710530695956 21.973624240948425 81.43920258148673 C 0.0 **** -0.24
6317 H 56.784660233240345 22.867368485278377 81.97876489203232 H 0.0 **** 0.06
6318 H 55.98759956243015 21.282336635109516 82.13018586923904 H 0.0 **** 0.06
6319 H 57.343830141140074 21.49256989954634 80.99544510037444 H 0.0 **** 0.06
6320 H 55.77025578019459 22.251639856519716 80.65208303676542 H 0.0 **** 0.06
6321 C 75.9722640394532 91.41542295002816 48.44500865333396 C 0.0 **** -0.24
6322 H 76.15638850912535 90.71439813624772 47.63092321799621 H 0.0 **** 0.06
6323 H 75.96253272148317 90.87648807227026 49.3927840694877 H 0.0 **** 0.06
6324 H 75.00832905043285 91.90204916262222 48.2932851727584 H 0.0 **** 0.06
6325 H 76.76122653473013 92.1676302170564 48.461199264122286 H 0.0 **** 0.06
6326 C 55.06028838536212 50.33051084588354 30.917597910902586 C 0.0 **** -0.24
6327 H 54.5420086060102 49.46100183220247 30.51262892644735 H 0.0 **** 0.06
6328 H 54.33850480831501 51.123879265759314 31.115758951028624 H 0.0 **** 0.06
6329 H 55.79763482210668 50.68200892060631 30.195497454861396 H 0.0 **** 0.06
6330 H 55.562329486226695 50.055317661209614 31.84438110400123 H 0.0 **** 0.06
6331 C 37.08119283280371 91.01428006596997 45.786470407693315 C 0.0 **** -0.24
6332 H 36.13688933071958 90.52874534271074 45.542133361708636 H 0.0 **** 0.06
6333 H 37.90395506097306 90.44884559936379 45.34957813181833 H 0.0 **** 0.06
6334 H 37.20047792070025 91.05179111923927 46.86925325469301 H 0.0 **** 0.06
6335 H 37.082574314308545 92.02778144559875 45.385399653826 H 0.0 **** 0.06
6336 C 92.20178274905516 71.62521846500758 1.226466980657861 C 0.0 **** -0.24
6337 H 92.6527072905 71.69422626512356 0.2359914704416326 H 0.0 **** 0.06
6338 H 92.9439193401031 71.88636377041124 1.980827712227395 H 0.0 **** 0.06
6339 H 91.85329422535735 70.60600978476938 1.396449830727164 H 0.0 **** 0.06
6340 H 91.35954043010653 72.31297586631737 1.289974954261126 H 0.0 **** 0.06
6341 C 102.29050521151049 102.22104660861898 38.47187569403184 C 0.0 **** -0.24
6342 H 102.36247244706928 102.24209332019808 39.5593344124093 H 0.0 **** 0.06
6343 H 102.26347601160268 103.24247978413135 38.09048945611272 H 0.0 **** 0.06
6344 H 101.38000118882138 101.69938554193268 38.17833212450873 H 0.0 **** 0.06
6345 H 103.15646726276877 101.70224708868871 38.060675630346026 H 0.0 **** 0.06
6346 C 69.1964365735023 62.51551930790623 19.17951574454824 C 0.0 **** -0.24
6347 H 69.96397138107972 62.46545384296974 19.952409344007407 H 0.0 **** 0.06
6348 H 68.35789775909137 61.87749456855124 19.459039996932034 H 0.0 **** 0.06
6349 H 69.61306264896587 62.175492979768364 18.23166106442207 H 0.0 **** 0.06
6350 H 68.85228633564407 63.54490569980777 19.077007211360183 H 0.0 **** 0.06
6351 C 82.04246853604886 56.78705837216747 65.04219785145946 C 0.0 **** -0.24
6352 H 82.90829164854611 56.38573509710169 64.5154857141836 H 0.0 **** 0.06
6353 H 82.26557401370027 56.85750427786589 66.10726830642722 H 0.0 **** 0.06
6354 H 81.18793004227186 56.12717406653247 64.89142853271343 H 0.0 **** 0.06
6355 H 81.80954179239907 57.7782287138479 64.65330817017369 H 0.0 **** 0.06
6356 C 85.99119185025395 52.30999900930226 64.08040851084337 C 0.0 **** -0.24
6357 H 86.34625934016825 51.51850603604265 63.42013078405563 H 0.0 **** 0.06
6358 H 85.39683059796238 53.02156935459999 63.507375312511215 H 0.0 **** 0.06
6359 H 86.84515900781852 52.822585612708 64.5245254185096 H 0.0 **** 0.06
6360 H 85.37741617949266 51.87507658775996 64.86990877715579 H 0.0 **** 0.06
6361 C 59.24339283798716 6.176901456503629 31.900572467220485 C 0.0 **** -0.24
6362 H 59.74871965618177 7.137018817710384 32.00846222513164 H 0.0 **** 0.06
6363 H 59.95618749257418 5.371230454314528 32.07683854666283 H 0.0 **** 0.06
6364 H 58.83921938799462 6.090865991010631 30.892234031605398 H 0.0 **** 0.06
6365 H 58.431929627904985 6.110170822706934 32.624701703607315 H 0.0 **** 0.06
6366 C 24.127777154152767 49.60942235550257 45.082610367016926 C 0.0 **** -0.24
6367 H 24.879526352613112 50.03875886802251 44.41933812424248 H 0.0 **** 0.06
6368 H 23.305474216117716 50.31485543474185 45.20236327374736 H 0.0 **** 0.06
6369 H 24.575783288977874 49.4027804216221 46.054448991160186 H 0.0 **** 0.06
6370 H 23.750815937373318 48.68122122527746 44.65133240354575 H 0.0 **** 0.06
6371 C 26.568310923538153 97.98219889854288 77.1180013776327 C 0.0 **** -0.24
6372 H 25.803730266785056 97.25977604357111 76.83377557561694 H 0.0 **** 0.06
6373 H 27.143480128049905 97.59154451497953 77.9578289048315 H 0.0 **** 0.06
6374 H 26.092475855433907 98.91978666268636 77.40741100514003 H 0.0 **** 0.06
6375 H 27.233466558452857 98.1586656361983 76.27279834187075 H 0.0 **** 0.06
6376 C 17.266090782929894 12.01006349845646 62.313280489266674 C 0.0 **** -0.24
6377 H 16.409161483942427 11.590112541200881 61.78567256547859 H 0.0 **** 0.06
6378 H 17.720001802997558 12.78995028683542 61.701870569951154 H 0.0 **** 0.06
6379 H 17.99629424780551 11.224520503299772 62.50269199916343 H 0.0 **** 0.06
6380 H 16.936184081614414 12.436546986372917 63.26093081552679 H 0.0 **** 0.06
6381 C 97.87215928498635 78.25879028798244 4.265757714388187 C 0.0 **** -0.24
6382 H 98.15834392993673 77.90668126092278 3.274707116517689 H 0.0 **** 0.06
6383 H 96.7924322540265 78.16710496975155 4.3856871569735745 H 0.0 **** 0.06
6384 H 98.16187549975473 79.30368975194213 4.378066861002296 H 0.0 **** 0.06
6385 H 98.37490080783874 77.65834910227169 5.023950996143952 H 0.0 **** 0.06
6386 C 32.83869065014369 11.194949761083617 5.447340651507602 C 0.0 **** -0.24
6387 H 33.353429333218514 12.119149078806672 5.186351426250553 H 0.0 **** 0.06
6388 H 33.065931145619174 10.43035088173103 4.703819257800717 H 0.0 **** 0.06
6389 H 31.76332099497347 11.372319834382004 5.469514543862374 H 0.0 **** 0.06
6390 H 33.17129502115216 10.858597374240627 6.429679768755932 H 0.0 **** 0.06
6391 C 0.8233660562542582 48.41680293341108 77.12789030932254 C 0.0 **** -0.24
6392 H 1.7572763507266131 47.96894571572409 76.7893594423715 H 0.0 **** 0.06
6393 H 0.05702207327411202 48.28079254588471 76.36311197566766 H 0.0 **** 0.06
6394 H 0.9741907128456546 49.481654984261354 77.30571535872184 H 0.0 **** 0.06
6395 H 0.5036464119467325 47.9360392231153 78.05228540885656 H 0.0 **** 0.06
6396 C 89.1710460138882 93.6192591717313 106.99642984906251 C 0.0 **** -0.24
6397 H 88.33696830422298 93.5659215343054 107.69579109798505 H 0.0 **** 0.06
6398 H 89.69968098727549 94.56243982118065 107.13282638050583 H 0.0 **** 0.06
6399 H 88.7934176387322 93.55894387279449 105.97566024367174 H 0.0 **** 0.06
6400 H 89.85365436004696 92.7896336956261 107.18056057435402 H 0.0 **** 0.06
6401 C 75.85034361161313 58.41573289007615 8.525489467805713 C 0.0 **** -0.24
6402 H 76.71442908697658 58.68117928334878 7.915995224009407 H 0.0 **** 0.06
6403 H 76.03590139939065 57.463576731684235 9.023194896975752 H 0.0 **** 0.06
6404 H 74.96915767241609 58.32905114123113 7.889378355669294 H 0.0 **** 0.06
6405 H 75.68281068891838 59.190553444016196 9.273711054671168 H 0.0 **** 0.06
6406 C 18.720361403955167 19.0321565321861 58.0253841625647 C 0.0 **** -0.24
6407 H 19.25095301853898 19.007286530680567 58.977320998331436 H 0.0 **** 0.06
6408 H 18.267242681476546 20.014452921907836 57.88890717655901 H 0.0 **** 0.06
6409 H 17.943255349231805 18.26898656733144 58.02266201431701 H 0.0 **** 0.06
6410 H 19.42197712966103 18.840199837928278 57.21353028803322 H 0.0 **** 0.06
6411 C 75.52552787133791 38.24247607006288 61.90371896004592 C 0.0 **** -0.24
6412 H 75.08337807317727 39.238191581703575 61.94519074644995 H 0.0 **** 0.06
6413 H 74.74099678173567 37.502996619117766 61.74258911613737 H 0.0 **** 0.06
6414 H 76.03517976762524 38.03244561867166 62.84474070271736 H 0.0 **** 0.06
6415 H 76.24300080817284 38.19792889665774 61.084815542612205 H 0.0 **** 0.06
6416 C 22.740924429490093 53.156772377277235 42.77995151579154 C 0.0 **** -0.24
6417 H 23.057808218325107 53.96563619393427 43.438517162284484 H 0.0 **** 0.06
6418 H 23.019445096564937 52.19945508507769 43.22102131637786 H 0.0 **** 0.06
6419 H 23.226767234020656 53.265650484037025 41.81043461377817 H 0.0 **** 0.06
6420 H 21.658923154915897 53.19727223488391 42.65059249373121 H 0.0 **** 0.06
6421 C 45.46369513423397 37.73578584064106 79.41940577671895 C 0.0 **** -0.24
6422 H 45.23849886768985 38.38993472468354 80.2618644393248 H 0.0 **** 0.06
6423 H 46.48690472578925 37.37040662468581 79.5062208830926 H 0.0 **** 0.06
6424 H 45.35499867569099 38.292462002965834 78.48803502029537 H 0.0 **** 0.06
6425 H 44.77400786232737 36.891805065260314 79.4201925741921 H 0.0 **** 0.06
6426 C 85.1760037981878 39.07334708103784 83.7409094820988 C 0.0 **** -0.24
6427 H 84.78011232155157 39.22279656613435 82.73667321895067 H 0.0 **** 0.06
6428 H 84.42820190705328 39.37642332393446 84.47525880805154 H 0.0 **** 0.06
6429 H 86.07571511500673 39.67484166453258 83.86886063973884 H 0.0 **** 0.06
6430 H 85.41892844846795 38.02026329208783 83.88277510860132 H 0.0 **** 0.06
6431 C 52.34434917123386 45.0468372892372 5.315295432857852 C 0.0 **** -0.24
6432 H 51.78114776088764 45.95868850501995 5.12055927978605 H 0.0 **** 0.06
6433 H 53.23981557814256 45.03361506861148 4.692789319760692 H 0.0 **** 0.06
6434 H 51.72565264092856 44.18076236292376 5.081396932233446 H 0.0 **** 0.06
6435 H 52.63316560075536 45.01416343525909 6.365890122794383 H 0.0 **** 0.06
6436 C 64.0757502625792 74.13125608403733 0.5988725201420095 C 0.0 **** -0.24
6437 H 64.81464933773742 73.37284267885478 0.854072221086625 H 0.0 **** 0.06
6438 H 63.60041762834939 74.49642395301373 1.5095821600365582 H 0.0 **** 0.06
6439 H 63.32004396455211 73.69663807640181 -0.05599763475572672 H 0.0 **** 0.06
6440 H 64.56617699058121 74.95915625771161 0.08808628695805965 H 0.0 **** 0.06
6441 C 62.9346082775387 76.31441896996434 58.214579554034316 C 0.0 **** -0.24
6442 H 62.36493980999535 76.75065879488864 59.035355636680805 H 0.0 **** 0.06
6443 H 63.89083483221543 75.94907383399804 58.59180430013021 H 0.0 **** 0.06
6444 H 63.109778861710765 77.07224958243225 57.450673305283516 H 0.0 **** 0.06
6445 H 62.3730212286373 75.48581204195455 57.78364193323043 H 0.0 **** 0.06
6446 C 21.603072032124402 23.37467847101563 64.04617883255642 C 0.0 **** -0.24
6447 H 21.63515114056935 22.938287053371564 65.04421948469093 H 0.0 **** 0.06
6448 H 22.528164537396805 23.142162203971207 63.517959384674214 H 0.0 **** 0.06
6449 H 21.492388171690976 24.457006686065554 64.12641921071469 H 0.0 **** 0.06
6450 H 20.75753599987661 22.96350667617514 63.49631139420296 H 0.0 **** 0.06
6451 C 84.75278344336266 99.59474281557777 69.80081250231058 C 0.0 **** -0.24
6452 H 83.87097777434187 100.20385737676098 69.99836223995561 H 0.0 **** 0.06
6453 H 84.62530412876676 98.61298211171963 70.25624485220186 H 0.0 **** 0.06
6454 H 85.63200082030806 100.08079798368632 70.22281943452344 H 0.0 **** 0.06
6455 H 84.88198187798552 99.48147519891846 68.72353769608907 H 0.0 **** 0.06
6456 C 106.96408658355716 48.99956808472291 13.238227268111238 C 0.0 **** -0.24
6457 H 106.014315143582 48.91964654836633 13.76654861245619 H 0.0 **** 0.06
6458 H 107.34589873377234 48.00101162978362 13.024830429411825 H 0.0 **** 0.06
6459 H 107.67972279242429 49.539113864261594 13.859033115841584 H 0.0 **** 0.06
6460 H 106.81476804287342 49.54017506552569 12.303204377477186 H 0.0 **** 0.06
6461 C 13.130302167812374 82.02287001051747 8.952240105571732 C 0.0 **** -0.24
6462 H 12.457518560163606 82.23122570470818 8.12029128910791 H 0.0 **** 0.06
6463 H 12.87540142687675 81.05897337590677 9.392368021801971 H 0.0 **** 0.06
6464 H 13.030072238579152 82.80358141502306 9.705555658667237 H 0.0 **** 0.06
6465 H 14.158185239332397 81.99720857616204 8.589874809034441 H 0.0 **** 0.06
6466 C 25.772418430729687 65.55526918959345 63.891399648439034 C 0.0 **** -0.24
6467 H 25.999091889152425 66.59730586771896 64.11632274322102 H 0.0 **** 0.06
6468 H 24.695584213062773 65.43741900954585 63.76484857879964 H 0.0 **** 0.06
6469 H 26.11356503686042 64.92469944758207 64.71142978489746 H 0.0 **** 0.06
6470 H 26.28049615385973 65.26375183535403 62.97215138569578 H 0.0 **** 0.06
6471 C 40.60448957379543 91.22054297075152 22.942823339372552 C 0.0 **** -0.24
6472 H 40.16256522910919 91.34748368536734 21.954074291945915 H 0.0 **** 0.06
6473 H 40.18368241958615 91.95887498683643 23.626135806340443 H 0.0 **** 0.06
6474 H 41.68337878881596 91.35834309589494 22.878009355148578 H 0.0 **** 0.06
6475 H 40.386933486970406 90.21795748284536 23.311122671581643 H 0.0 **** 0.06
6476 C 44.471744736105904 19.701917451251404 31.22892327039588 C 0.0 **** -0.24
6477 H 45.477255819205794 20.115655842108424 31.307158329570058 H 0.0 **** 0.06
6478 H 44.32257303348112 19.29586540343857 30.22837279649616 H 0.0 **** 0.06
6479 H 43.740854387302505 20.489196054494187 31.415346006470486 H 0.0 **** 0.06
6480 H 44.34679424396862 18.907945402387384 31.966144764754404 H 0.0 **** 0.06
6481 C 33.75015544269138 22.38160296311156 84.52596425403414 C 0.0 **** -0.24
6482 H 33.238813448451765 22.66500010704283 83.6056636725622 H 0.0 **** 0.06
6483 H 33.30646955430734 22.915133891194444 85.36638812072596 H 0.0 **** 0.06
6484 H 34.80632752982581 22.637627964497767 84.44812864240271 H 0.0 **** 0.06
6485 H 33.647068120916515 21.307052118310935 84.68204200518517 H 0.0 **** 0.06
6486 C 34.27893924874658 102.0508649810426 70.1030845898766 C 0.0 **** -0.24
6487 H 33.824994082658066 102.90310818280861 70.60868424820367 H 0.0 **** 0.06
6488 H 33.52036644880951 101.53160060358084 69.51519034785059 H 0.0 **** 0.06
6489 H 34.69630235364093 101.36840694211821 70.84280800193412 H 0.0 **** 0.06
6490 H 35.07245046590066 102.40112856703837 69.44238714702632 H 0.0 **** 0.06
6491 C 71.75163399927919 13.427639909027647 29.113711274908695 C 0.0 **** -0.24
6492 H 72.2359961255454 12.472304868722006 28.91223922317539 H 0.0 **** 0.06
6493 H 72.2078147835764 13.887573774175962 29.991549948844124 H 0.0 **** 0.06
6494 H 70.68981672426361 13.265155509930537 29.299430453064105 H 0.0 **** 0.06
6495 H 71.8744966497793 14.085409315615436 28.253195214256465 H 0.0 **** 0.06
6496 C 36.944688554878894 57.0192326767022 7.933294308117382 C 0.0 **** -0.24
6497 H 36.32104450461702 57.148713872423116 8.816905846334578 H 0.0 **** 0.06
6498 H 37.85940463460366 56.493547319343975 8.207239750776012 H 0.0 **** 0.06
6499 H 37.19710169659055 57.99574924853503 7.520354015902029 H 0.0 **** 0.06
6500 H 36.401480082561875 56.43958825953213 7.187462170915637 H 0.0 **** 0.06
6501 C 73.08621184239672 48.240933403480994 22.139844879086183 C 0.0 **** -0.24
6502 H 73.17475533777804 49.02651611977058 21.389860530700503 H 0.0 **** 0.06
6503 H 72.03229968240765 48.03865838015349 22.33195344713647 H 0.0 **** 0.06
6504 H 73.56736839066178 48.56505797845085 23.063004331709294 H 0.0 **** 0.06
6505 H 73.57115541915755 47.335200055624966 21.776167106086007 H 0.0 **** 0.06
6506 C 75.5195116270811 39.70425398768177 46.072611507930986 C 0.0 **** -0.24
6507 H 74.4543245865813 39.64144429623133 45.84842575442636 H 0.0 **** 0.06
6508 H 75.81829130286832 38.83321540535292 46.65731680252301 H 0.0 **** 0.06
6509 H 75.71809220177644 40.61092710791863 46.642714342712026 H 0.0 **** 0.06
6510 H 76.08513179602684 39.7284755372294 45.14135062477129 H 0.0 **** 0.06
6511 C 59.603228648892355 30.98161908205708 29.590335233829535 C 0.0 **** -0.24
6512 H 59.07090796285672 31.45807791358728 30.414374939790207 H 0.0 **** 0.06
6513 H 58.894388737055294 30.435774069892595 28.968042787744025 H 0.0 **** 0.06
6514 H 60.345633785179416 30.29083709651357 29.989001173489385 H 0.0 **** 0.06
6515 H 60.10064875753983 31.744454071942698 28.991373030631166 H 0.0 **** 0.06
6516 C 24.645622466658438 44.01965520114891 6.302791758415935 C 0.0 **** -0.24
6517 H 24.789774715231374 43.04524200727005 5.836893992656087 H 0.0 **** 0.06
6518 H 25.142639344814768 44.033943328218925 7.274120178432213 H 0.0 **** 0.06
6519 H 23.580628037964004 44.20462192984493 6.436891741254044 H 0.0 **** 0.06
6520 H 25.071828520041606 44.7941798942515 5.664973117559896 H 0.0 **** 0.06
6521 C 30.88352251878817 59.30134068874628 11.030661023740095 C 0.0 **** -0.24
6522 H 31.794895980517225 58.70431581823925 11.022452570031277 H 0.0 **** 0.06
6523 H 30.163670223020574 58.87294936827817 10.3331072518898 H 0.0 **** 0.06
6524 H 31.116339887827962 60.32306981040759 10.7303705120909 H 0.0 **** 0.06
6525 H 30.460141796670626 59.30463933697641 12.034492950324193 H 0.0 **** 0.06
6526 C 17.624504821908246 52.516462383710916 31.587808661582443 C 0.0 **** -0.24
6527 H 17.07574830958302 52.04430661390299 30.772218703696097 H 0.0 **** 0.06
6528 H 18.52218131533064 51.93655887133326 31.80414306480955 H 0.0 **** 0.06
6529 H 16.992915714586985 52.55410617289732 32.475361392691525 H 0.0 **** 0.06
6530 H 17.906040416045172 53.528636658642625 31.297125568294376 H 0.0 **** 0.06
6531 C 102.00801525623626 96.40919467362112 65.95316507296282 C 0.0 **** -0.24
6532 H 102.04764058556253 95.52223695924215 66.58573172349394 H 0.0 **** 0.06
6533 H 101.0157815779541 96.85742343186875 66.0185262938347 H 0.0 **** 0.06
6534 H 102.2120113519789 96.12680719867822 64.92010184352226 H 0.0 **** 0.06
6535 H 102.75501180434873 97.12745926519429 66.28880739748489 H 0.0 **** 0.06
6536 C 48.85211810334112 8.348311776154757 41.68403293813657 C 0.0 **** -0.24
6537 H 49.30360556310792 7.844045354786044 42.5399314579775 H 0.0 **** 0.06
6538 H 48.93273600576049 7.711093027776741 40.80352642728781 H 0.0 **** 0.06
6539 H 49.37156668398417 9.289316942396582 41.502200132366056 H 0.0 **** 0.06
6540 H 47.80164403031737 8.547614590827033 41.89385733541235 H 0.0 **** 0.06
6541 C 78.94492726662679 57.38700478760924 9.827241502410175 C 0.0 **** -0.24
6542 H 79.78921643244087 56.91432212213567 10.329726963983518 H 0.0 **** 0.06
6543 H 78.02501397580937 56.870017405150094 10.099990988389735 H 0.0 **** 0.06
6544 H 79.08742273716248 57.330611370872106 8.747531085685765 H 0.0 **** 0.06
6545 H 78.87952478938948 58.43141416178389 10.132043530620521 H 0.0 **** 0.06
6546 C 17.74388649568226 99.27391456004119 16.816369531469235 C 0.0 **** -0.24
6547 H 17.048864365136822 99.96771245360382 17.28970497760305 H 0.0 **** 0.06
6548 H 18.20669418278831 98.64736212379546 17.578850218561556 H 0.0 **** 0.06
6549 H 18.51524781889384 99.83626900567326 16.289473973821444 H 0.0 **** 0.06
6550 H 17.203283582640793 98.64600903869133 16.107545228199882 H 0.0 **** 0.06
6551 C 37.99538444864828 52.06789546380213 93.55916506718881 C 0.0 **** -0.24
6552 H 38.95067421122825 51.54694170359352 93.61181764483769 H 0.0 **** 0.06
6553 H 38.10788978255391 53.0763293561601 93.95880289986485 H 0.0 **** 0.06
6554 H 37.253870347269924 51.52572218129711 94.14581118656668 H 0.0 **** 0.06
6555 H 37.66723079976187 52.12352620995051 92.52101231819057 H 0.0 **** 0.06
6556 C 26.87359470933123 83.44002846886829 75.10408750370995 C 0.0 **** -0.24
6557 H 26.414910031874683 82.484456786397 75.36141979565531 H 0.0 **** 0.06
6558 H 27.616573427666737 83.70092230587025 75.8584758566269 H 0.0 **** 0.06
6559 H 26.10592296428655 84.212914405766 75.0660332199477 H 0.0 **** 0.06
6560 H 27.3572759960349 83.35903594733175 74.13002724541403 H 0.0 **** 0.06
6561 C 57.1677748699324 41.23150601586381 10.987024557833456 C 0.0 **** -0.24
6562 H 57.22532573561551 41.68803937436405 9.998398772028212 H 0.0 **** 0.06
6563 H 56.19590703446377 41.44651259138435 11.42985040672096 H 0.0 **** 0.06
6564 H 57.954306207481324 41.64113865831607 11.620674503150083 H 0.0 **** 0.06
6565 H 57.29761220511463 40.153335777638766 10.897231031262843 H 0.0 **** 0.06
6566 C 79.17241344113302 75.56432954636387 22.77317890091996 C 0.0 **** -0.24
6567 H 79.09316136583288 76.60533075104757 23.088349271779663 H 0.0 **** 0.06
6568 H 78.64950246170213 74.9281804417671 23.487034007744512 H 0.0 **** 0.06
6569 H 80.2227265174792 75.27649743924144 22.732254488078524 H 0.0 **** 0.06
6570 H 78.72431464595161 75.4486675318692 21.78615180463902 H 0.0 **** 0.06
6571 C 24.367488420089188 29.48846687260098 28.174559972198665 C 0.0 **** -0.24
6572 H 25.131565530739806 29.172564271075146 27.463594805965613 H 0.0 **** 0.06
6573 H 23.512981600474944 28.814243289172964 28.112492384042355 H 0.0 **** 0.06
6574 H 24.049381189250965 30.50332119402441 27.93875891249948 H 0.0 **** 0.06
6575 H 24.779181440349646 29.461103940887057 29.183081067601165 H 0.0 **** 0.06
6576 C 98.8072076273895 62.79221735688532 47.1478484570693 C 0.0 **** -0.24
6577 H 98.48280836605713 62.86527831770957 48.18552176179918 H 0.0 **** 0.06
6578 H 99.60887541476097 63.508233528206944 46.96778931918834 H 0.0 **** 0.06
6579 H 97.96730992349488 63.012926280627624 46.489262005002786 H 0.0 **** 0.06
6580 H 99.16846002388996 61.7829994951708 46.95076545428839 H 0.0 **** 0.06
6581 C 55.64720621810635 0.8704641432134537 0.36470363806147255 C 0.0 **** -0.24
6582 H 54.79160884047238 0.6753148679075309 -0.28193273785282713 H 0.0 **** 0.06
6583 H 56.41869630631135 0.12198644829362593 0.18220728263224295 H 0.0 **** 0.06
6584 H 55.332639658803345 0.8241984412569394 1.4069776139364185 H 0.0 **** 0.06
6585 H 56.04570557249885 1.8629733471845498 0.15010509206637979 H 0.0 **** 0.06
6586 C 34.88638014074077 1.060063829273986 87.73544641312138 C 0.0 **** -0.24
6587 H 34.17133903664129 0.6472496281347162 87.02420430434941 H 0.0 **** 0.06
6588 H 35.640416063950696 1.6374263048281819 87.19853375556012 H 0.0 **** 0.06
6589 H 35.36923340574301 0.24804847704240274 88.27907817925256 H 0.0 **** 0.06
6590 H 34.36490183302158 1.7088942047502087 88.43990029743586 H 0.0 **** 0.06
6591 C 30.38729572550875 48.234761184361325 69.0347688800831 C 0.0 **** -0.24
6592 H 30.39238674196534 48.37032295373856 70.11670318313807 H 0.0 **** 0.06
6593 H 29.535700727458646 48.764393574122835 68.60670902708077 H 0.0 **** 0.06
6594 H 30.308067532974434 47.1730646217118 68.8022608510158 H 0.0 **** 0.06
6595 H 31.31086770385582 48.63154292906897 68.61390817930231 H 0.0 **** 0.06
6596 C 74.25807238420086 30.120351010932332 0.8022725183421642 C 0.0 **** -0.24
6597 H 73.79827046422116 31.009361872276173 0.3709541024979188 H 0.0 **** 0.06
6598 H 74.2659894573228 30.20638809760198 1.8888615154795474 H 0.0 **** 0.06
6599 H 75.28145946474899 30.028734767594734 0.4365333790478587 H 0.0 **** 0.06
6600 H 73.68763245003896 29.238279306175947 0.510287031852684 H 0.0 **** 0.06
6601 C 55.36313318561679 73.38687865303464 105.3881763030171 C 0.0 **** -0.24
6602 H 55.73454507271035 72.57161596423003 104.7675929901622 H 0.0 **** 0.06
6603 H 55.801061759253884 74.3269991401838 105.05218261320547 H 0.0 **** 0.06
6604 H 55.63990995407241 73.20710855188867 106.42739575777867 H 0.0 **** 0.06
6605 H 54.27825979581968 73.44122980322715 105.30516228205954 H 0.0 **** 0.06
6606 C 106.79706879230228 74.2231577804672 30.31893464405279 C 0.0 **** -0.24
6607 H 107.09563906388011 74.88514744363692 31.131541663304333 H 0.0 **** 0.06
6608 H 105.92667487457622 73.64218810640261 30.623697450131445 H 0.0 **** 0.06
6609 H 107.61940605785897 73.54813601227616 30.081231562637456 H 0.0 **** 0.06
6610 H 106.54878983886121 74.8170790397021 29.439271748118827 H 0.0 **** 0.06
6611 C 10.769522231488963 71.97492277679095 66.01096476205157 C 0.0 **** -0.24
6612 H 10.259934357289069 72.3734573631923 65.13340330370238 H 0.0 **** 0.06
6613 H 11.81783644960349 72.27397182426466 65.98906247815967 H 0.0 **** 0.06
6614 H 10.70168228562639 70.8875676263632 66.0077752553845 H 0.0 **** 0.06
6615 H 10.299123747831317 72.36579176177742 66.91287128833534 H 0.0 **** 0.06
6616 C 70.7640408281485 65.71140788283303 5.6594212778742445 C 0.0 **** -0.24
6617 H 70.95620989404239 65.90145508915396 4.603497126679457 H 0.0 **** 0.06
6618 H 70.68226651598661 64.63735563578904 5.826227871356423 H 0.0 **** 0.06
6619 H 69.8333429559317 66.19736546288924 5.952307620733961 H 0.0 **** 0.06
6620 H 71.58581967630244 66.10994202521931 6.2548873123618165 H 0.0 **** 0.06
6621 C 18.470262180800347 75.44204801483755 61.55391853719719 C 0.0 **** -0.24
6622 H 18.63450650619278 74.39168017787142 61.31016869051773 H 0.0 **** 0.06
6623 H 18.8927175405492 75.6570889248797 62.535154266851535 H 0.0 **** 0.06
6624 H 17.399733535878312 75.64774249496168 61.56536080810561 H 0.0 **** 0.06
6625 H 18.95273648743472 76.06831242064192 60.80408381871263 H 0.0 **** 0.06
6626 C 71.81162185257857 32.633226972326696 55.16603884157806 C 0.0 **** -0.24
6627 H 71.35511895330772 32.70224915325582 56.153675298464265 H 0.0 **** 0.06
6628 H 71.67670680040841 31.62483634778775 54.77325258793684 H 0.0 **** 0.06
6629 H 72.87594774626139 32.854873216150054 55.24140473979139 H 0.0 **** 0.06
6630 H 71.33793316020753 33.350582751118 54.496328912954056 H 0.0 **** 0.06
6631 C 95.59631434426007 15.47008124789238 27.076757694703538 C 0.0 **** -0.24
6632 H 95.00524738899429 14.57806948803875 26.873271808389962 H 0.0 **** 0.06
6633 H 96.60297581227195 15.338248710982356 26.67821453956551 H 0.0 **** 0.06
6634 H 95.64895898338733 15.632895573543436 28.153139009203915 H 0.0 **** 0.06
6635 H 95.12789843692968 16.331724585377202 26.601635626065345 H 0.0 **** 0.06
6636 C 39.767062596965005 51.62145011054997 77.81491632495946 C 0.0 **** -0.24
6637 H 39.235892469143295 50.857332194364915 78.38115456595904 H 0.0 **** 0.06
6638 H 39.64586184961922 52.58748754027255 78.3062785418112 H 0.0 **** 0.06
6639 H 39.36207331612222 51.673433767540644 76.8048682892559 H 0.0 **** 0.06
6640 H 40.82624716443199 51.367832249626304 77.76813221619625 H 0.0 **** 0.06
6641 C 64.96479939935477 38.64999980201904 81.45705309640533 C 0.0 **** -0.24
6642 H 64.83190247463165 37.854174957497406 82.19071513355219 H 0.0 **** 0.06
6643 H 66.01934409897495 38.920369323878845 81.4013439137885 H 0.0 **** 0.06
6644 H 64.3800879341386 39.5203233529665 81.75524285811208 H 0.0 **** 0.06
6645 H 64.626170445274 38.30265999384315 80.48074719448707 H 0.0 **** 0.06
6646 C 16.83956603630233 78.24264015415471 47.619757561548056 C 0.0 **** -0.24
6647 H 16.33668131347622 77.88314977802523 48.51712833217249 H 0.0 **** 0.06
6648 H 17.296269020222866 77.40213653110831 47.09753947061034 H 0.0 **** 0.06
6649 H 17.61273354052298 78.95966101089041 47.89950370299215 H 0.0 **** 0.06
6650 H 16.11434006258048 78.72711989614865 46.96676496856895 H 0.0 **** 0.06
6651 C 59.0226159886428 104.86084267001465 96.0211695381837 C 0.0 **** -0.24
6652 H 58.1865964159839 105.2719271721126 95.455526096688 H 0.0 **** 0.06
6653 H 59.06103199618909 105.3298696545029 97.00515057363509 H 0.0 **** 0.06
6654 H 59.95306582688369 105.05760010888189 95.48821519312907 H 0.0 **** 0.06
6655 H 58.89033631709299 103.78471407505305 96.13614811722778 H 0.0 **** 0.06
6656 C 40.947681744111485 76.65648673074026 40.89663444161578 C 0.0 **** -0.24
6657 H 40.63494201588826 76.37456958132418 41.90206583852816 H 0.0 **** 0.06
6658 H 41.96181281867276 76.29818920634301 40.71838523870669 H 0.0 **** 0.06
6659 H 40.92290704179844 77.7414638085861 40.799915168493236 H 0.0 **** 0.06
6660 H 40.26999745414666 76.21089266837475 40.16795160691485 H 0.0 **** 0.06
6661 C 47.622272514909525 84.32025466683041 65.64080074588198 C 0.0 **** -0.24
6662 H 46.70895544127552 84.91427754737434 65.61535615448855 H 0.0 **** 0.06
6663 H 48.221236826050756 84.61382589276334 66.50298251652687 H 0.0 **** 0.06
6664 H 48.19243356754703 84.49080183781683 64.72702462869779 H 0.0 **** 0.06
6665 H 47.366821516286336 83.26346505198988 65.71762651013456 H 0.0 **** 0.06
6666 C 42.56461660140576 59.525578198804965 34.04083319849709 C 0.0 **** -0.24
6667 H 42.130555782133854 58.57301015640553 33.739486275382 H 0.0 **** 0.06
6668 H 41.83212139975103 60.092868794659466 34.61489840229698 H 0.0 **** 0.06
6669 H 42.849914632977914 60.091336648361136 33.153626829775796 H 0.0 **** 0.06
6670 H 43.446614838073344 59.3435351949548 34.65521026654639 H 0.0 **** 0.06
6671 C 49.25998865286408 64.45203763508431 15.789403793693168 C 0.0 **** -0.24
6672 H 48.3660299024408 64.5458920514637 15.172780073236936 H 0.0 **** 0.06
6673 H 48.973848952526396 64.41183596610077 16.840064334347346 H 0.0 **** 0.06
6674 H 49.907593259552925 65.31276819809639 15.62204523936029 H 0.0 **** 0.06
6675 H 49.79115759815471 63.53872218966103 15.52096354488782 H 0.0 **** 0.06
6676 C 92.26050540438992 64.89163861326489 24.601846372075954 C 0.0 **** -0.24
6677 H 92.22599174307786 65.66159907766024 23.83146635500728 H 0.0 **** 0.06
6678 H 91.46436330634248 65.06552812946472 25.325620435674452 H 0.0 **** 0.06
6679 H 93.2257782868859 64.92706913359694 25.106526101886587 H 0.0 **** 0.06
6680 H 92.12718834968501 63.91237668281866 24.14262821146656 H 0.0 **** 0.06
6681 C 58.165149770501216 34.383123402616405 87.32482712705446 C 0.0 **** -0.24
6682 H 58.614207522480626 34.01738269088037 88.24798992609826 H 0.0 **** 0.06
6683 H 57.6921623888938 35.34858802200429 87.50753389843973 H 0.0 **** 0.06
6684 H 57.4159128505568 33.670151624450966 86.97920300114941 H 0.0 **** 0.06
6685 H 58.93770551540279 34.49424833200561 86.56423488449595 H 0.0 **** 0.06
6686 C 34.87748382628947 66.60248884320191 10.175050953894612 C 0.0 **** -0.24
6687 H 33.94964058146992 66.48864781494004 10.735322160250718 H 0.0 **** 0.06
6688 H 34.68851521459763 67.19013566109302 9.276334192413458 H 0.0 **** 0.06
6689 H 35.25473513220219 65.61952269567854 9.894124481798087 H 0.0 **** 0.06
6690 H 35.61608382885753 67.1119273631447 10.794427386028161 H 0.0 **** 0.06
6691 C 97.65487088825552 16.64456158851405 101.23933955537139 C 0.0 **** -0.24
6692 H 96.76992656419009 17.279656583369075 101.21227376990561 H 0.0 **** 0.06
6693 H 97.39717121987917 15.679035666802008 101.67488782384036 H 0.0 **** 0.06
6694 H 98.42629004292775 17.122206111032995 101.84500695216471 H 0.0 **** 0.06
6695 H 98.0288155527856 16.498491920017614 100.22573225042302 H 0.0 **** 0.06
6696 C 4.708966926452632 49.34991262153727 43.82946522253667 C 0.0 **** -0.24
6697 H 3.8410166949939253 48.70336398944693 43.695450202818165 H 0.0 **** 0.06
6698 H 4.547106415814795 49.9992174295802 44.690099387736495 H 0.0 **** 0.06
6699 H 4.850731269993162 49.957517072865585 42.93605804819924 H 0.0 **** 0.06
6700 H 5.5951542950621445 48.73762886472258 43.9982143956978 H 0.0 **** 0.06
6701 C 78.23065904195448 94.4133835833029 46.14983069737422 C 0.0 **** -0.24
6702 H 77.82432831100306 94.69652812986084 47.12051766172657 H 0.0 **** 0.06
6703 H 78.40568944049042 93.33771621650413 46.12902723451512 H 0.0 **** 0.06
6704 H 79.17162806979135 94.93783697694215 45.9831284441113 H 0.0 **** 0.06
6705 H 77.52157146316435 94.6821810971644 45.36701309519531 H 0.0 **** 0.06
6706 C 88.4676563565302 50.179520141676335 29.902800965785083 C 0.0 **** -0.24
6707 H 88.78274520531815 50.69259889722642 30.812053388951284 H 0.0 **** 0.06
6708 H 87.4447341879914 50.46753564905944 29.659786512295334 H 0.0 **** 0.06
6709 H 88.51510666625731 49.101526680829465 30.060361499641495 H 0.0 **** 0.06
6710 H 89.12878858954946 50.456731249765625 29.08221834214317 H 0.0 **** 0.06
6711 C 23.124479089521344 15.185016276415617 105.38210664768164 C 0.0 **** -0.24
6712 H 22.735213017571738 14.16890860125628 105.46024701728058 H 0.0 **** 0.06
6713 H 23.33820760453773 15.412334102055091 104.33776071308783 H 0.0 **** 0.06
6714 H 24.04025455902871 15.267979874115483 105.96731091379029 H 0.0 **** 0.06
6715 H 22.384609970452402 15.887248858973997 105.76408271693116 H 0.0 **** 0.06
6716 C 4.190944886364392 100.60634802950153 59.08560211752524 C 0.0 **** -0.24
6717 H 5.0707315484742566 100.98238348929976 59.607997063522134 H 0.0 **** 0.06
6718 H 3.299733270502955 101.10098578766826 59.47422679052329 H 0.0 **** 0.06
6719 H 4.10821465896251 99.53151697925705 59.24212227981411 H 0.0 **** 0.06
6720 H 4.285303860187867 100.81283898212246 58.019937284894866 H 0.0 **** 0.06
6721 C 46.30148477805972 55.7267338618247 1.0745909843114418 C 0.0 **** -0.24
6722 H 45.4699933816986 55.57987982052049 1.7640978135945034 H 0.0 **** 0.06
6723 H 46.956565891983814 56.5096842352599 1.4573783668886335 H 0.0 **** 0.06
6724 H 45.91536090819375 56.02106081532571 0.09890266843785867 H 0.0 **** 0.06
6725 H 46.86214743464194 54.797221271230114 0.9788026264315022 H 0.0 **** 0.06
6726 C 95.36890003771914 93.36537634271508 0.8524821630863357 C 0.0 **** -0.24
6727 H 95.0133218093403 92.3998258287961 1.2123363574401083 H 0.0 **** 0.06
6728 H 96.19619644592944 93.70393263169032 1.477306187298609 H 0.0 **** 0.06
6729 H 94.55726757814621 94.09151121314878 0.8983363740308903 H 0.0 **** 0.06
6730 H 95.70936226351078 93.26539940790643 -0.17802973962744773 H 0.0 **** 0.06
6731 C 17.35142777532357 98.67368175708755 33.14285657719781 C 0.0 **** -0.24
6732 H 18.08402743988796 98.73677275551319 32.338092030834794 H 0.0 **** 0.06
6733 H 17.862652231455343 98.71812487884637 34.10409433907929 H 0.0 **** 0.06
6734 H 16.805879512152387 97.73396356248965 33.062941200305474 H 0.0 **** 0.06
6735 H 16.65205604055197 99.50678109781897 33.06330510413256 H 0.0 **** 0.06
6736 C 42.612160445529696 48.67610873753671 36.496681096767304 C 0.0 **** -0.24
6737 H 41.76348365644259 47.99885924784655 36.58706636638499 H 0.0 **** 0.06
6738 H 42.34819695905719 49.64680964800675 36.91704611958815 H 0.0 **** 0.06
6739 H 42.871672237511746 48.7946206692647 35.44393833104124 H 0.0 **** 0.06
6740 H 43.46516213932222 48.26477749684523 37.03653240466096 H 0.0 **** 0.06
6741 C 17.352476944402536 43.70821688296479 52.39296247669307 C 0.0 **** -0.24
6742 H 18.347963944452278 43.81963502650038 52.823311591484696 H 0.0 **** 0.06
6743 H 16.762459904902755 44.600530241646936 52.605590172705206 H 0.0 **** 0.06
6744 H 16.863701039015165 42.83632560247801 52.82832834734711 H 0.0 **** 0.06
6745 H 17.436323867312794 43.57693288867446 51.31398892297699 H 0.0 **** 0.06
6746 C 98.7782931573876 54.40685717923818 6.342755345014012 C 0.0 **** -0.24
6747 H 97.96714759759848 54.85940114464419 5.772570693798002 H 0.0 **** 0.06
6748 H 98.88335949671315 53.36024978863783 6.05685545971383 H 0.0 **** 0.06
6749 H 98.55491641612466 54.472132474481334 7.407244254005235 H 0.0 **** 0.06
6750 H 99.70827751751347 54.93615385287471 6.13314172874712 H 0.0 **** 0.06
6751 C 61.44575528935391 54.68719923654692 74.436897641035 C 0.0 **** -0.24
6752 H 61.66127772877587 53.75894810223565 73.90691588902419 H 0.0 **** 0.06
6753 H 62.32466629803764 55.33197218337375 74.40960235410061 H 0.0 **** 0.06
6754 H 61.19064261654995 54.463544146697416 75.47261411714419 H 0.0 **** 0.06
6755 H 60.60894266603822 55.1935949997162 73.95698658540705 H 0.0 **** 0.06
6756 C 105.52380973384663 74.56816510199847 24.531155972139203 C 0.0 **** -0.24
6757 H 106.12734076847363 73.94267127034581 25.188881951375123 H 0.0 **** 0.06
6758 H 105.95223347401532 75.56944473207449 24.489109592035902 H 0.0 **** 0.06
6759 H 104.50591424612458 74.62396879842315 24.91708139709513 H 0.0 **** 0.06
6760 H 105.51016181919118 74.13590358003265 23.530725360406763 H 0.0 **** 0.06
6761 C 18.783719275080387 85.79414825156331 12.08218562106913 C 0.0 **** -0.24
6762 H 19.61843794512356 86.4902362017931 12.15903595043369 H 0.0 **** 0.06
6763 H 18.89057584423591 85.0137327664246 12.836748495241636 H 0.0 **** 0.06
6764 H 18.778110788633 85.3422059095179 11.090386566555878 H 0.0 **** 0.06
6765 H 17.847628672009705 86.32962200581514 12.243163836619487 H 0.0 **** 0.06
6766 C 38.43983133083913 15.042480023373031 59.10802532672963 C 0.0 **** -0.24
6767 H 38.921741547514074 14.314522990142592 59.76222858410358 H 0.0 **** 0.06
6768 H 38.30537270510527 15.980661906211566 59.646545844074524 H 0.0 **** 0.06
6769 H 37.46852470776062 14.661142582557261 58.79273194758292 H 0.0 **** 0.06
6770 H 39.065154912333554 15.212470018863542 58.23185325221448 H 0.0 **** 0.06
6771 C 58.05561790968267 99.77341055107405 87.80971566834634 C 0.0 **** -0.24
6772 H 58.933705186893974 100.34461570012479 88.11264662345677 H 0.0 **** 0.06
6773 H 57.15475136271368 100.28441160992924 88.14922131262225 H 0.0 **** 0.06
6774 H 58.099426058609026 98.77843153872948 88.2533499169053 H 0.0 **** 0.06
6775 H 58.03698167517729 99.68628195655435 86.72312925698341 H 0.0 **** 0.06
6776 C 78.34363270766184 13.257772296649534 8.631173854168441 C 0.0 **** -0.24
6777 H 78.50753538189517 13.24523430670098 7.553259452589138 H 0.0 **** 0.06
6778 H 77.57587523779209 12.527969558009772 8.889909586304855 H 0.0 **** 0.06
6779 H 78.01762835050913 14.252413334802327 8.936459135842222 H 0.0 **** 0.06
6780 H 79.27194846199778 13.006084625015887 9.142196161564648 H 0.0 **** 0.06
6781 C 105.87899581343694 50.16215133209346 81.28675230664017 C 0.0 **** -0.24
6782 H 106.12086251532077 50.14317369491977 80.22390468181473 H 0.0 **** 0.06
6783 H 106.27638313586031 49.26651187175116 81.76529700243664 H 0.0 **** 0.06
6784 H 104.79606415564152 50.1916338767067 81.4117265569326 H 0.0 **** 0.06
6785 H 106.32230481837185 51.0467932419308 81.74393118398116 H 0.0 **** 0.06
6786 C 35.40990998274234 55.91998947960394 22.777384347590186 C 0.0 **** -0.24
6787 H 34.623374658549885 56.62866724809396 22.51780446004807 H 0.0 **** 0.06
6788 H 35.559379603646214 55.22424362665049 21.951266751054277 H 0.0 **** 0.06
6789 H 35.1205957036131 55.36756131856987 23.67152365112824 H 0.0 **** 0.06
6790 H 36.33676867116506 56.46079752873425 22.969166367101366 H 0.0 **** 0.06
6791 C 59.73975679966758 48.86477698722922 98.75173317518401 C 0.0 **** -0.24
6792 H 59.421615379291644 48.04686503072355 98.10433389238808 H 0.0 **** 0.06
6793 H 60.78029367706769 48.713553437889345 99.04190937986739 H 0.0 **** 0.06
6794 H 59.11277846519583 48.88675401217051 99.643202689506 H 0.0 **** 0.06
6795 H 59.64411602548418 49.80906592541862 98.21583864580863 H 0.0 **** 0.06
6796 C 70.34273676553732 61.69710720606798 26.66135937009588 C 0.0 **** -0.24
6797 H 70.5524431331944 62.235962788661936 25.73774171330777 H 0.0 **** 0.06
6798 H 71.14812125847078 61.87288466949451 27.374634084621647 H 0.0 **** 0.06
6799 H 70.27009811810854 60.63059397171236 26.450014101696837 H 0.0 **** 0.06
6800 H 69.40161934522553 62.04972633127085 27.081131183971024 H 0.0 **** 0.06
6801 C 83.5607098689203 67.81710732429696 44.513734965807856 C 0.0 **** -0.24
6802 H 84.23983783211219 68.33178253780807 43.83328335965376 H 0.0 **** 0.06
6803 H 82.53073212400489 68.0258260681951 44.22477817059388 H 0.0 **** 0.06
6804 H 83.7312187229997 68.16956059141727 45.53140100682711 H 0.0 **** 0.06
6805 H 83.74236644660516 66.7439033435525 44.4660090607662 H 0.0 **** 0.06
6806 C 23.826160438043143 11.074637749745293 63.78943242821539 C 0.0 **** -0.24
6807 H 24.82218403805682 10.662051753385967 63.62638174070928 H 0.0 **** 0.06
6808 H 23.120542136781562 10.597587375169553 63.108263929944656 H 0.0 **** 0.06
6809 H 23.843289325237823 12.148190688840202 63.6028222092598 H 0.0 **** 0.06
6810 H 23.520124273256076 10.888701618652917 64.81862546116865 H 0.0 **** 0.06
6811 C 59.050602926152315 77.15927806809543 73.23503870439296 C 0.0 **** -0.24
6812 H 59.52314997272639 78.1166932947425 73.45229669795788 H 0.0 **** 0.06
6813 H 58.45341238379877 77.24732371310756 72.3266080805473 H 0.0 **** 0.06
6814 H 58.40690872636555 76.87429737480909 74.06723548948786 H 0.0 **** 0.06
6815 H 59.81860226210054 76.39945551583025 73.09215626411523 H 0.0 **** 0.06
6816 C 79.67165448422517 53.130922152684775 9.67992609191053 C 0.0 **** -0.24
6817 H 79.76752261927626 52.43531155091452 10.513189475224337 H 0.0 **** 0.06
6818 H 78.626905122296 53.18911009058402 9.373823716631279 H 0.0 **** 0.06
6819 H 80.27643820898035 52.78087545200833 8.843543614561469 H 0.0 **** 0.06
6820 H 80.01575198634808 54.1183915172318 9.989147561225096 H 0.0 **** 0.06
6821 C 54.02874137573567 106.360229720978 44.908478639863276 C 0.0 **** -0.24
6822 H 54.20135681686913 107.38552295252009 44.57954938088449 H 0.0 **** 0.06
6823 H 53.00912154111713 106.26562251946865 45.282230676726535 H 0.0 **** 0.06
6824 H 54.73204053902292 106.11174285846238 45.70397365764628 H 0.0 **** 0.06
6825 H 54.17479262357873 105.67961273822652 44.06989098843982 H 0.0 **** 0.06
6826 C 102.43693361991268 50.47023494616542 65.55086810740232 C 0.0 **** -0.24
6827 H 103.16465869453265 49.95860238386848 64.92071331682641 H 0.0 **** 0.06
6828 H 102.6842536772162 50.30226198772749 66.59981932382337 H 0.0 **** 0.06
6829 H 101.43969435294841 50.079381834781145 65.34533353314421 H 0.0 **** 0.06
6830 H 102.45953860373021 51.538496587012844 65.33753797056775 H 0.0 **** 0.06
6831 C 95.8826806626935 8.582591682601205 11.04003548841115 C 0.0 **** -0.24
6832 H 95.35115476292737 9.533162639796174 11.081457312469695 H 0.0 **** 0.06
6833 H 95.20034468462754 7.773439797399277 11.303105083783123 H 0.0 **** 0.06
6834 H 96.71468777590842 8.600538631448899 11.74467001942827 H 0.0 **** 0.06
6835 H 96.26461467872136 8.423511359724188 10.031864599184587 H 0.0 **** 0.06
6836 C 33.74223417234478 3.363321041688863 23.83448992007944 C 0.0 **** -0.24
6837 H 32.80147734594231 3.702905381265211 24.26767899213733 H 0.0 **** 0.06
6838 H 34.51976158994407 4.101827240567587 24.03081728436477 H 0.0 **** 0.06
6839 H 33.622064825134515 3.2389423422451955 22.758104769024524 H 0.0 **** 0.06
6840 H 34.02478183219158 2.4097788366009496 24.280861738730092 H 0.0 **** 0.06
6841 C 3.548420414423532 71.45470951844302 16.36597771808391 C 0.0 **** -0.24
6842 H 2.7996676462141465 71.30908935391795 17.144556399583735 H 0.0 **** 0.06
6843 H 4.158470330854129 72.32551785738696 16.607733133562647 H 0.0 **** 0.06
6844 H 3.052622691191118 71.61221551100942 15.408830851033883 H 0.0 **** 0.06
6845 H 4.184274868965957 70.57204597304428 16.304831651750874 H 0.0 **** 0.06
6846 C 17.892783729881444 23.87957867069005 106.31272072194616 C 0.0 **** -0.24
6847 H 17.808842832180773 24.55062999614009 105.45781151200185 H 0.0 **** 0.06
6848 H 17.735933258391128 24.443339335399315 107.23290581141782 H 0.0 **** 0.06
6849 H 18.88612024557395 23.430752664684803 106.3250698096162 H 0.0 **** 0.06
6850 H 17.14023563194013 23.095524858516455 106.23397017358042 H 0.0 **** 0.06
6851 C 106.81808185653381 36.0240402452436 99.8539351645315 C 0.0 **** -0.24
6852 H 106.69927130182361 36.81301533521355 99.11097480952712 H 0.0 **** 0.06
6853 H 107.3998969976277 35.20796275606014 99.42658479860755 H 0.0 **** 0.06
6854 H 105.8366186408158 35.6549248676246 100.15135825656394 H 0.0 **** 0.06
6855 H 107.33508504387368 36.42267933725395 100.72696168112843 H 0.0 **** 0.06
6856 C 46.72757933813472 67.92837008194329 9.972968307758496 C 0.0 **** -0.24
6857 H 45.9431458271053 68.61396619268555 10.294842176559843 H 0.0 **** 0.06
6858 H 46.286846042514156 67.11973476858395 9.390122026472298 H 0.0 **** 0.06
6859 H 47.230013097394846 67.51469509225274 10.847955780166656 H 0.0 **** 0.06
6860 H 47.45090292551106 68.46748230764956 9.36065651316297 H 0.0 **** 0.06
6861 C 85.93897149052194 102.11176461234446 67.43704684772088 C 0.0 **** -0.24
6862 H 85.86031051225447 102.71390109673233 66.53129861586277 H 0.0 **** 0.06
6863 H 84.94613953325194 101.7728893284578 67.73346710399993 H 0.0 **** 0.06
6864 H 86.37297315593659 102.712062234054 68.2356543562912 H 0.0 **** 0.06
6865 H 86.57519230372932 101.24813297202928 67.24424861022074 H 0.0 **** 0.06
6866 C 19.472345332192276 45.60829878761811 24.441879675860264 C 0.0 **** -0.24
6867 H 19.911575804368027 46.55295471220725 24.12013207797338 H 0.0 **** 0.06
6868 H 18.4105748476058 45.75339546057063 24.646706932230472 H 0.0 **** 0.06
6869 H 19.97359670015213 45.262735652968416 25.345590835025916 H 0.0 **** 0.06
6870 H 19.591752955033556 44.865292588958 23.65307340345032 H 0.0 **** 0.06
6871 C 0.2867648793525084 11.641594892648401 25.959459886512928 C 0.0 **** -0.24
6872 H -0.30158790813417546 12.09742935360351 26.755437035857092 H 0.0 **** 0.06
6873 H -0.2853361801038279 11.657420986059009 25.031039354192885 H 0.0 **** 0.06
6874 H 0.5212356309366468 10.611061625748134 26.225197230916017 H 0.0 **** 0.06
6875 H 1.2118920148610437 12.20269626913111 25.82561759486832 H 0.0 **** 0.06
6876 C 90.45937807648323 95.49230180606651 37.929861094922096 C 0.0 **** -0.24
6877 H 90.15150744839747 94.44709709631326 37.93172084112746 H 0.0 **** 0.06
6878 H 90.24464382843638 95.93195421717132 36.95618217576546 H 0.0 **** 0.06
6879 H 91.52814110843474 95.55664066926926 38.130855470889045 H 0.0 **** 0.06
6880 H 89.91186985408166 96.03380760919958 38.7017308701369 H 0.0 **** 0.06
6881 C 80.20033098392697 89.4686562088895 52.00628372051747 C 0.0 **** -0.24
6882 H 81.01569361045276 88.75619937582199 51.887259834949845 H 0.0 **** 0.06
6883 H 79.29216279529474 89.05937873629252 51.564131954941985 H 0.0 **** 0.06
6884 H 80.45906151607896 90.40276490029417 51.50584865374154 H 0.0 **** 0.06
6885 H 80.03523440760252 89.65871339961676 53.0667105600177 H 0.0 **** 0.06
6886 C 59.44648199164456 86.10667625405304 1.3962138905964707 C 0.0 **** -0.24
6887 H 59.98308055565079 86.58263539211717 0.5757453865439857 H 0.0 **** 0.06
6888 H 59.0645192759589 86.87090872656941 2.0731296326004838 H 0.0 **** 0.06
6889 H 60.124514815087934 85.44603524465745 1.938218262434134 H 0.0 **** 0.06
6890 H 58.61565837651892 85.52498975609245 0.9979468867368837 H 0.0 **** 0.06
6891 C 10.833358139629354 17.196388815431714 0.7888211347545848 C 0.0 **** -0.24
6892 H 11.560068481608596 16.39693001416761 0.9333251561078271 H 0.0 **** 0.06
6893 H 10.981884013524265 17.963228436830367 1.5487459622518145 H 0.0 **** 0.06
6894 H 9.825283073285789 16.79003653056745 0.8751126166001484 H 0.0 **** 0.06
6895 H 10.965259607842938 17.633220195907647 -0.201163240656399 H 0.0 **** 0.06
6896 C 96.26135356661132 78.68175011931856 75.27197728287035 C 0.0 **** -0.24
6897 H 95.90391812590997 78.67408754088888 74.24215355545385 H 0.0 **** 0.06
6898 H 96.71256262953239 79.64824203599147 75.49326984419247 H 0.0 **** 0.06
6899 H 97.00431909789654 77.89504050120547 75.40299599193378 H 0.0 **** 0.06
6900 H 95.42380342386366 78.50654250549553 75.9475383676509 H 0.0 **** 0.06
6901 C 35.47309132235668 41.81096491547985 59.64952679074176 C 0.0 **** -0.24
6902 H 34.46524452167834 41.85207796925848 59.23743188419931 H 0.0 **** 0.06
6903 H 36.10792482116925 42.52809848909713 59.129313791055665 H 0.0 **** 0.06
6904 H 35.87679001725064 40.806243575286075 59.52028613392204 H 0.0 **** 0.06
6905 H 35.44175032707105 42.05508609608545 60.71125240798702 H 0.0 **** 0.06
6906 C 36.41509717709192 74.83994554508922 69.72106113764032 C 0.0 **** -0.24
6907 H 35.78296477669031 75.33211523917873 70.46065383695328 H 0.0 **** 0.06
6908 H 36.29149595279604 73.75919378755788 69.80017592994679 H 0.0 **** 0.06
6909 H 37.45780569357038 75.10095612595961 69.90209465764536 H 0.0 **** 0.06
6910 H 36.126180135759796 75.16704139224396 68.72273508267888 H 0.0 **** 0.06
6911 C 65.23776956973668 37.918196932627126 33.181958176095236 C 0.0 **** -0.24
6912 H 65.67677959471561 36.97210910872005 32.863425934918496 H 0.0 **** 0.06
6913 H 64.90109787164425 37.832513140335436 34.21507296096377 H 0.0 **** 0.06
6914 H 64.38995082844099 38.15819881845354 32.5407810114246 H 0.0 **** 0.06
6915 H 65.9850028321124 38.70811929041068 33.10642788647556 H 0.0 **** 0.06
6916 C 93.01314643318567 80.89264453476645 34.031153127892395 C 0.0 **** -0.24
6917 H 93.99169818235877 81.28458004508121 34.30989812393332 H 0.0 **** 0.06
6918 H 92.5024637461499 80.52469288998546 34.920907293828435 H 0.0 **** 0.06
6919 H 93.13872662875481 80.07583923637227 33.32064738514316 H 0.0 **** 0.06
6920 H 92.42086922416883 81.68467551321308 33.57312001250615 H 0.0 **** 0.06
6921 C 84.52408860145043 42.92646753263497 16.79181699965645 C 0.0 **** -0.24
6922 H 83.43795690398709 42.88689777682228 16.871741063399586 H 0.0 **** 0.06
6923 H 84.80323418304606 43.25066439433849 15.789202989335443 H 0.0 **** 0.06
6924 H 84.9378658383336 41.93525942492509 16.98272977326034 H 0.0 **** 0.06
6925 H 84.91756721296831 43.630794697561406 17.525555773520924 H 0.0 **** 0.06
6926 C 97.72873297173959 75.00117442519775 46.773248288822714 C 0.0 **** -0.24
6927 H 97.05925291697235 74.7618750311139 45.94595387596277 H 0.0 **** 0.06
6928 H 98.57502242588652 74.3143938254027 46.76542095935281 H 0.0 **** 0.06
6929 H 97.1894135668299 74.90416435412845 47.71566398672792 H 0.0 **** 0.06
6930 H 98.08966409115686 76.02390047490678 46.663635932951195 H 0.0 **** 0.06
6931 C 38.834899035223515 16.705317893581835 55.98829879167037 C 0.0 **** -0.24
6932 H 37.923168850339366 16.32861124451307 56.45332345541416 H 0.0 **** 0.06
6933 H 38.64866182443916 17.697477008331788 55.575599435418866 H 0.0 **** 0.06
6934 H 39.14098571331972 16.030010151401044 55.1895547221603 H 0.0 **** 0.06
6935 H 39.625048917994064 16.7650451952193 56.7364461686285 H 0.0 **** 0.06
6936 C 97.1115555783949 16.494032264679532 23.936447413192877 C 0.0 **** -0.24
6937 H 96.8537529831215 15.543665731428831 23.469144536774035 H 0.0 **** 0.06
6938 H 97.0078004262072 16.405016525775125 25.018302680689008 H 0.0 **** 0.06
6939 H 96.44183209242378 17.271708306948113 23.569771647496324 H 0.0 **** 0.06
6940 H 98.14077416136925 16.75287123885542 23.689295298958605 H 0.0 **** 0.06
6941 C 44.80658646708147 71.55211618721842 105.37658425325009 C 0.0 **** -0.24
6942 H 44.88434826663786 71.26647819505266 104.32804970481715 H 0.0 **** 0.06
6943 H 45.78679619689177 71.4725673324879 105.84850125102611 H 0.0 **** 0.06
6944 H 44.105008474565665 70.88846563137847 105.8830159012756 H 0.0 **** 0.06
6945 H 44.45123011971211 72.57992314260352 105.44846209159957 H 0.0 **** 0.06
6946 C 94.41161642597731 102.27229559438615 46.663408154380875 C 0.0 **** -0.24
6947 H 94.34341396942514 101.40322901617594 47.317698924027184 H 0.0 **** 0.06
6948 H 94.67332374929228 101.94934867116416 45.65634896243975 H 0.0 **** 0.06
6949 H 95.178360478793 102.94985125358545 47.03886598990036 H 0.0 **** 0.06
6950 H 93.45015259808844 102.78680530702314 46.6428451427054 H 0.0 **** 0.06
6951 C 51.77519676542465 40.063295072155924 53.70121024976834 C 0.0 **** -0.24
6952 H 50.81829657625633 39.54526316468839 53.77572028605405 H 0.0 **** 0.06
6953 H 52.340552630980255 39.91369402512817 54.6206948606669 H 0.0 **** 0.06
6954 H 51.599707571968224 41.12862536579212 53.55029426636713 H 0.0 **** 0.06
6955 H 52.33881176633952 39.66413704135297 52.857706413265106 H 0.0 **** 0.06
6956 C 2.051570170398321 25.1014962832796 96.97238028168582 C 0.0 **** -0.24
6957 H 2.4308386701420517 26.088594687407323 96.706290269086 H 0.0 **** 0.06
6958 H 1.2401861987746514 24.83020294739194 96.29592352042816 H 0.0 **** 0.06
6959 H 1.6796703922699265 25.119420041208002 97.99688650797242 H 0.0 **** 0.06
6960 H 2.854270357303818 24.36974598771218 96.88982391889157 H 0.0 **** 0.06
6961 C 13.519208231286143 16.348869952143502 53.753024345385995 C 0.0 **** -0.24
6962 H 13.57814058980588 16.250933211493077 54.8367125149847 H 0.0 **** 0.06
6963 H 12.496565936566174 16.157007010061648 53.426255137979865 H 0.0 **** 0.06
6964 H 14.191888150021136 15.62990775860493 53.28552483529876 H 0.0 **** 0.06
6965 H 13.809773043363354 17.35896157969698 53.46372914129029 H 0.0 **** 0.06
6966 C 48.72659581348112 69.13668412615806 17.653264809621703 C 0.0 **** -0.24
6967 H 49.75029446161648 68.80467575819063 17.48160465670344 H 0.0 **** 0.06
6968 H 48.33769352143312 68.66419791025436 18.555634202113765 H 0.0 **** 0.06
6969 H 48.107255744165215 68.85848123791442 16.800150649556713 H 0.0 **** 0.06
6970 H 48.71114764885461 70.21959064490062 17.774271043002102 H 0.0 **** 0.06
6971 C 85.60717512167557 24.207451010822012 102.62977729541657 C 0.0 **** -0.24
6972 H 85.04813760445921 24.799248543513215 101.90452391124195 H 0.0 **** 0.06
6973 H 85.27335408977368 23.170745723472237 102.5878086600923 H 0.0 **** 0.06
6974 H 85.436245418119 24.604652890665733 103.63040330778695 H 0.0 **** 0.06
6975 H 86.67112248226903 24.256247946404983 102.3954876597468 H 0.0 **** 0.06
6976 C 9.353620150974663 16.0074065645979 5.46157853103476 C 0.0 **** -0.24
6977 H 9.888952481420887 15.155528931923982 5.880854693774538 H 0.0 **** 0.06
6978 H 9.739086388370225 16.223026689484588 4.464873225019218 H 0.0 **** 0.06
6979 H 9.495490235810308 16.877005010715685 6.102718216234749 H 0.0 **** 0.06
6980 H 8.291300928732255 15.772044684984966 5.396976964450005 H 0.0 **** 0.06
6981 C 37.54385426746283 53.06139656979501 4.097909627291926 C 0.0 **** -0.24
6982 H 36.4997373944683 52.77834998487695 4.232907081988472 H 0.0 **** 0.06
6983 H 38.16411778110783 52.16463923473671 4.084081811865886 H 0.0 **** 0.06
6984 H 37.85465692030708 53.70489467496757 4.921258659853436 H 0.0 **** 0.06
6985 H 37.657474965037295 53.59663905528322 3.15527368517742 H 0.0 **** 0.06
6986 C 101.21064042590451 50.56235799555219 103.07692049252398 C 0.0 **** -0.24
6987 H 100.1873996157711 50.47353469230825 102.71268382705443 H 0.0 **** 0.06
6988 H 101.67241165393598 51.451445457962365 102.64754126249403 H 0.0 **** 0.06
6989 H 101.7787166652651 49.67908436797023 102.78250945416545 H 0.0 **** 0.06
6990 H 101.20417887158771 50.645023948165544 104.16401953194975 H 0.0 **** 0.06
6991 C 6.059352515492776 4.174324189412431 20.13271016187101 C 0.0 **** -0.24
6992 H 6.565669510703486 5.13916610751788 20.090014417164372 H 0.0 **** 0.06
6993 H 6.745525318745166 3.421496510703534 20.522150953525266 H 0.0 **** 0.06
6994 H 5.737000814789695 3.889686703333652 19.13174086512507 H 0.0 **** 0.06
6995 H 5.1913071412256215 4.248828405640879 20.78722221426308 H 0.0 **** 0.06
6996 C 40.57275231287281 92.2167182586291 45.814130705259345 C 0.0 **** -0.24
6997 H 41.651542120679125 92.22571592036115 45.656047389417694 H 0.0 **** 0.06
6998 H 40.30806547992884 92.97370939685544 46.55232309258628 H 0.0 **** 0.06
6999 H 40.2673520263895 91.23462271585447 46.17344068434443 H 0.0 **** 0.06
7000 H 40.06742587407646 92.43346316496974 44.873230327329566 H 0.0 **** 0.06
7001 C 47.87316260398114 11.140019710269073 23.53043370908449 C 0.0 **** -0.24
7002 H 47.53049578506909 11.878924008407381 24.254500402757742 H 0.0 **** 0.06
7003 H 48.817364252842424 10.710660065985024 23.86852000659067 H 0.0 **** 0.06
7004 H 48.01777776639 11.618614342046058 22.562521377579003 H 0.0 **** 0.06
7005 H 47.12762378140843 10.350489060609448 23.43749334238771 H 0.0 **** 0.06
7006 C 65.76939845595528 81.93721261328827 86.22823053331439 C 0.0 **** -0.24
7007 H 66.18772317714844 82.37183326615033 85.32169431654034 H 0.0 **** 0.06
7008 H 65.75149005304668 82.68890436602139 87.01819291537612 H 0.0 **** 0.06
7009 H 66.38299174944079 81.09298460400642 86.54419428038887 H 0.0 **** 0.06
7010 H 64.75344500475832 81.59295654284391 86.03118710010682 H 0.0 **** 0.06
7011 C 86.73558687225226 48.05778187104062 2.068880745714239 C 0.0 **** -0.24
7012 H 87.52736327492842 47.753245366211715 2.753927015142949 H 0.0 **** 0.06
7013 H 86.64986634655094 47.32471133076983 1.266008813906609 H 0.0 **** 0.06
7014 H 86.97549415455596 49.03319866819639 1.6468769211565757 H 0.0 **** 0.06
7015 H 85.79134558441999 48.117462053703655 2.6095676657311344 H 0.0 **** 0.06
7016 C 85.46604295801842 46.650425072995986 37.34739348833568 C 0.0 **** -0.24
7017 H 84.63538989040177 47.30813443927308 37.60322267743774 H 0.0 **** 0.06
7018 H 85.10175956247173 45.62802774981438 37.247103775799445 H 0.0 **** 0.06
7019 H 86.21878897442099 46.693694321917114 38.13523164692424 H 0.0 **** 0.06
7020 H 85.90812030039541 46.97393362979368 36.40528865152271 H 0.0 **** 0.06
7021 C 40.41290868154511 48.106480769299026 66.12700456917003 C 0.0 **** -0.24
7022 H 39.771502869086866 48.520814010703475 66.90473990259707 H 0.0 **** 0.06
7023 H 39.9360471390844 48.23605298629312 65.15492953923123 H 0.0 **** 0.06
7024 H 40.57229141801575 47.044510607584954 66.31526569183123 H 0.0 **** 0.06
7025 H 41.37269019416953 48.624838949298095 66.13275223771504 H 0.0 **** 0.06
7026 C 41.79183225930106 38.479971590438936 33.20320251636011 C 0.0 **** -0.24
7027 H 41.95729323014271 38.66142729102003 32.14126221702233 H 0.0 **** 0.06
7028 H 41.911658685861426 37.416405213323884 33.41242955030788 H 0.0 **** 0.06
7029 H 40.783110288015195 38.79222342428096 33.47266023541687 H 0.0 **** 0.06
7030 H 42.51705480867918 39.049451232142644 33.785169815635186 H 0.0 **** 0.06
7031 C 83.70936327149542 87.52856162090943 54.55406432309398 C 0.0 **** -0.24
7032 H 83.81212082203211 87.22236545030037 53.51346571901401 H 0.0 **** 0.06
7033 H 83.08461117457108 86.80921417679941 55.08443949599706 H 0.0 **** 0.06
7034 H 83.24722454441553 88.51447166246753 54.59797180849366 H 0.0 **** 0.06
7035 H 84.69363527501176 87.56767077626411 55.019540158172305 H 0.0 **** 0.06
7036 C 40.75147206327973 21.96329532771685 70.52508427902285 C 0.0 **** -0.24
7037 H 40.1374379921284 21.91239276538535 69.62551781108235 H 0.0 **** 0.06
7038 H 41.060713008737544 22.99477527063614 70.69511924673355 H 0.0 **** 0.06
7039 H 41.633424019893404 21.33531608465806 70.398322568336 H 0.0 **** 0.06
7040 H 40.1745005342435 21.61134445498854 71.37924530877385 H 0.0 **** 0.06
7041 C 0.3031267723476003 93.90250467247674 94.28574882736116 C 0.0 **** -0.24
7042 H -0.5283335265628848 94.53039632244199 93.96485386789753 H 0.0 **** 0.06
7043 H 0.13946430196749926 92.88039028358727 93.94289824372478 H 0.0 **** 0.06
7044 H 0.3685326016287074 93.91514773654839 95.37379751479374 H 0.0 **** 0.06
7045 H 1.2316576529804895 94.28337075361068 93.86173575070366 H 0.0 **** 0.06
7046 C 24.901696036982685 62.87336731057712 84.15182618216812 C 0.0 **** -0.24
7047 H 24.622661289544396 63.26942480517516 83.17518356652269 H 0.0 **** 0.06
7048 H 24.087270685431037 63.041455411269396 84.8568811228586 H 0.0 **** 0.06
7049 H 25.799878973690937 63.37829566490899 84.50570246242037 H 0.0 **** 0.06
7050 H 25.095153741898713 61.803691172124104 84.06801205407692 H 0.0 **** 0.06
7051 C 93.91007475576484 13.654971683078742 17.60696579086155 C 0.0 **** -0.24
7052 H 92.90603793264101 13.23004112157463 17.61223928541409 H 0.0 **** 0.06
7053 H 94.37999952128446 13.46266141324017 16.641962565231324 H 0.0 **** 0.06
7054 H 94.50230972067281 13.194356283892773 18.397708423667524 H 0.0 **** 0.06
7055 H 93.85104966273356 14.729649082349866 17.775667233259455 H 0.0 **** 0.06
7056 C 43.94907763429069 53.83717074526871 100.70562333243376 C 0.0 **** -0.24
7057 H 43.089986010540656 53.17342729292616 100.61023517869836 H 0.0 **** 0.06
7058 H 43.71381201706669 54.634556879219986 101.41096309207884 H 0.0 **** 0.06
7059 H 44.18357966827875 54.26930929691494 99.73230898428152 H 0.0 **** 0.06
7060 H 44.80648697703998 53.27142052559981 101.0688554508615 H 0.0 **** 0.06
7061 C 0.1733247391837267 37.27102625140088 20.551972540741076 C 0.0 **** -0.24
7062 H -0.24434596367012773 37.468232000502724 19.563751478707616 H 0.0 **** 0.06
7063 H 0.7210668426124585 36.3290473042548 20.532250938427055 H 0.0 **** 0.06
7064 H -0.6349137606678141 37.20710356199572 21.280404498664097 H 0.0 **** 0.06
7065 H 0.849734088462867 38.079856264601176 20.828182797210843 H 0.0 **** 0.06
7066 C 58.134288739181066 30.19205709204914 96.23960015282309 C 0.0 **** -0.24
7067 H 59.171602118287225 30.44870110504955 96.02750947757347 H 0.0 **** 0.06
7068 H 57.640962175093044 29.882751692742147 95.31886473036305 H 0.0 **** 0.06
7069 H 57.62320668287055 31.062251658388192 96.65205169755814 H 0.0 **** 0.06
7070 H 58.102370776175455 29.37566730532052 96.96190321876963 H 0.0 **** 0.06
7071 C 50.22577771409482 34.403798598449555 62.645700527806696 C 0.0 **** -0.24
7072 H 51.064332515881716 33.93505561835221 62.12915174539546 H 0.0 **** 0.06
7073 H 50.587980885808435 35.24119290440697 63.240871326045465 H 0.0 **** 0.06
7074 H 49.74689227449531 33.67272563603987 63.29790970902229 H 0.0 **** 0.06
7075 H 49.503753036505515 34.763789683795494 61.912028570686175 H 0.0 **** 0.06
7076 C 62.25040324855041 7.783465612083347 73.31122068841216 C 0.0 **** -0.24
7077 H 62.891773448125946 8.510402471927051 72.81243937565438 H 0.0 **** 0.06
7078 H 61.36501707479886 8.287122907163194 73.7006939396287 H 0.0 **** 0.06
7079 H 62.79664463597953 7.321582899292139 74.13342589194059 H 0.0 **** 0.06
7080 H 61.94868185505368 7.015792944705268 72.59914024905805 H 0.0 **** 0.06
7081 C 53.23179740441999 25.901105477581467 89.00734869091937 C 0.0 **** -0.24
7082 H 53.59591963312619 25.832199063111034 90.03244411000676 H 0.0 **** 0.06
7083 H 53.73470583475785 26.724489779957537 88.49847032787406 H 0.0 **** 0.06
7084 H 52.15713583974742 26.080758011475297 89.01391793100319 H 0.0 **** 0.06
7085 H 53.44112935212733 24.968815230902322 88.4832506860769 H 0.0 **** 0.06
7086 C 73.1935626888006 29.01101932497582 35.67352183098018 C 0.0 **** -0.24
7087 H 73.59448174212227 28.304550792410637 36.39942180401039 H 0.0 **** 0.06
7088 H 72.16800317875382 28.73646015663803 35.42626554618619 H 0.0 **** 0.06
7089 H 73.80333686778934 28.989024536262832 34.76987398843613 H 0.0 **** 0.06
7090 H 73.20862372607067 30.015724070401575 36.0967561377235 H 0.0 **** 0.06
7091 C 52.84362065608792 81.79118084851024 90.60440913052112 C 0.0 **** -0.24
7092 H 53.007900152237994 81.1340479253492 89.75028016660448 H 0.0 **** 0.06
7093 H 52.71969131983764 82.81704216412703 90.25502271532275 H 0.0 **** 0.06
7094 H 53.70151252971462 81.7365717859883 91.2744293397929 H 0.0 **** 0.06
7095 H 51.94621429464584 81.47753310891574 91.13646229035672 H 0.0 **** 0.06
7096 C 66.66954249518358 63.819384320698376 105.66553889050921 C 0.0 **** -0.24
7097 H 67.1169406565426 63.96978825513503 106.64748298171409 H 0.0 **** 0.06
7098 H 65.85920412424784 64.53401055866148 105.5228302588323 H 0.0 **** 0.06
7099 H 66.27580373135399 62.8048430121237 105.59733722973968 H 0.0 **** 0.06
7100 H 67.42698036827997 63.96797883287712 104.89526926699673 H 0.0 **** 0.06
7101 C 94.34841732012798 98.15488213245274 36.19449217901442 C 0.0 **** -0.24
7102 H 94.99497409423361 98.68803479550051 35.496482617775285 H 0.0 **** 0.06
7103 H 94.95975052531684 97.55477938353017 36.86918703933728 H 0.0 **** 0.06
7104 H 93.67315227202883 97.50481829611219 35.63867134174052 H 0.0 **** 0.06
7105 H 93.7674994289612 98.87321419543404 36.77246634062905 H 0.0 **** 0.06
7106 C 10.129977789733378 45.0551391500219 22.773272677438896 C 0.0 **** -0.24
7107 H 9.413472289608263 44.313498601130526 22.416911936382903 H 0.0 **** 0.06
7108 H 9.832821479869281 45.3997664459549 23.763633647815993 H 0.0 **** 0.06
7109 H 10.15021962153644 45.899476077691716 22.084536074450284 H 0.0 **** 0.06
7110 H 11.121204507136989 44.605947510830084 22.827171954771885 H 0.0 **** 0.06
7111 C 41.512251361822734 94.98760000931242 22.68895208359902 C 0.0 **** -0.24
7112 H 41.165507284100045 95.19453190897872 23.70126400592312 H 0.0 **** 0.06
7113 H 42.59782009274264 94.88590293920618 22.691396694643828 H 0.0 **** 0.06
7114 H 41.224345634943205 95.80801318360545 22.031900180088428 H 0.0 **** 0.06
7115 H 41.06068617460565 94.06157461878212 22.33335462159937 H 0.0 **** 0.06
7116 C 20.850690086541544 39.97742497701586 43.530263209480665 C 0.0 **** -0.24
7117 H 21.925030038075576 39.809041006548114 43.449440812541525 H 0.0 **** 0.06
7118 H 20.322727065829568 39.03710715159201 43.373399836705175 H 0.0 **** 0.06
7119 H 20.539448010045177 40.6990320252404 42.774857788059194 H 0.0 **** 0.06
7120 H 20.617596635595977 40.36535385909701 44.521320363633436 H 0.0 **** 0.06
7121 C 91.15605645254095 3.7228387659825444 80.46692486479787 C 0.0 **** -0.24
7122 H 91.02865710606028 2.640744264377716 80.49341245146451 H 0.0 **** 0.06
7123 H 92.06919018907121 3.994062042354358 80.99663083459825 H 0.0 **** 0.06
7124 H 90.30122167695069 4.200767624437944 80.94596374063678 H 0.0 **** 0.06
7125 H 91.22354052898467 4.055303632520449 79.43129283698704 H 0.0 **** 0.06
7126 C 4.590421131386876 60.193958821092444 81.99134795620053 C 0.0 **** -0.24
7127 H 3.583887544929368 59.776482403243136 81.94461087018274 H 0.0 **** 0.06
7128 H 5.1073601486825595 59.99992286130642 81.05074927716093 H 0.0 **** 0.06
7129 H 5.138072836402188 59.72866799187026 82.81083240115794 H 0.0 **** 0.06
7130 H 4.529502338975647 61.268724546867645 82.15791077435745 H 0.0 **** 0.06
7131 C 3.159927594956798 25.43763508321217 90.44358879342364 C 0.0 **** -0.24
7132 H 3.2993846864490592 26.47740736535576 90.1504080372968 H 0.0 **** 0.06
7133 H 4.029614177136409 25.098253217496563 91.00722871122964 H 0.0 **** 0.06
7134 H 3.040739515867756 24.82204017891064 89.55152497201416 H 0.0 **** 0.06
7135 H 2.267760943438759 25.352619921946655 91.06494203373411 H 0.0 **** 0.06
7136 C 88.5795399300687 39.4017791596043 60.67088226156025 C 0.0 **** -0.24
7137 H 88.64151741153904 38.49595876775976 61.273568658321864 H 0.0 **** 0.06
7138 H 87.78547437960844 39.29273297867633 59.93205308756549 H 0.0 **** 0.06
7139 H 89.53041199981148 39.564585820597586 60.161573813303136 H 0.0 **** 0.06
7140 H 88.3627968209258 40.25362127168188 61.31499647507857 H 0.0 **** 0.06
7141 C 66.09660990998182 84.4748758972105 38.26657440503982 C 0.0 **** -0.24
7142 H 65.12484841185778 84.52316309965134 38.76006578291859 H 0.0 **** 0.06
7143 H 66.69699091357836 85.33436876161852 38.56439207343411 H 0.0 **** 0.06
7144 H 65.95585041549862 84.48495924052826 37.18622365146521 H 0.0 **** 0.06
7145 H 66.60583088860167 83.55628682861142 38.55860837353353 H 0.0 **** 0.06
7146 C 77.59564225871068 49.71421456030015 85.16953040297565 C 0.0 **** -0.24
7147 H 77.81742534337103 49.66468731497912 84.1038198469079 H 0.0 **** 0.06
7148 H 76.52886295279067 49.55785772020124 85.32598520450946 H 0.0 **** 0.06
7149 H 77.88025064619733 50.6938029154079 85.55370149932568 H 0.0 **** 0.06
7150 H 78.15758248832275 48.94187320687223 85.69375904908753 H 0.0 **** 0.06
7151 C 42.37699013772341 6.133769153841968 37.9773283287945 C 0.0 **** -0.24
7152 H 42.51866441627453 5.351064856231119 37.23147436876104 H 0.0 **** 0.06
7153 H 43.28584539718028 6.238712678152467 38.56948427266647 H 0.0 **** 0.06
7154 H 41.546291295005 5.866663172595736 38.630497167366656 H 0.0 **** 0.06
7155 H 42.15805714239873 7.076499230636728 37.477064399048345 H 0.0 **** 0.06
7156 C 67.67053444284275 88.89240414337144 60.29279538374777 C 0.0 **** -0.24
7157 H 67.61659620163738 89.75060324049807 59.62209296370969 H 0.0 **** 0.06
7158 H 68.71356785523608 88.6111301023891 60.43959778146149 H 0.0 **** 0.06
7159 H 67.12623088800251 88.05579037855577 59.85686113452226 H 0.0 **** 0.06
7160 H 67.22634316156149 89.15516580224534 61.25307354193043 H 0.0 **** 0.06
7161 C 20.930233857764904 49.365397937232785 89.92214955949706 C 0.0 **** -0.24
7162 H 21.36094815446981 49.5018158472937 90.91373819501698 H 0.0 **** 0.06
7163 H 19.85300402622522 49.53039659385996 89.96946893001851 H 0.0 **** 0.06
7164 H 21.128097476535004 48.35080781136509 89.57631495441578 H 0.0 **** 0.06
7165 H 21.37739298205136 50.07906552448537 89.23031215738874 H 0.0 **** 0.06
7166 C 99.92920688676872 61.95790718329408 39.40062645450976 C 0.0 **** -0.24
7167 H 99.74824216561338 62.96791086368813 39.7677586123728 H 0.0 **** 0.06
7168 H 99.92018989229467 61.26030050329615 40.239183789788314 H 0.0 **** 0.06
7169 H 100.90012104040119 61.919273397901804 38.90614301616634 H 0.0 **** 0.06
7170 H 99.14897353058693 61.68435683979379 38.6909907845287 H 0.0 **** 0.06
7171 C 85.14082675283976 44.134007926361846 106.21239341269126 C 0.0 **** -0.24
7172 H 85.04991164752896 43.393483976662594 107.00653785432115 H 0.0 **** 0.06
7173 H 84.17784022829784 44.252558179152516 105.71480770229488 H 0.0 **** 0.06
7174 H 85.88470839059283 43.80138496073084 105.48941989041344 H 0.0 **** 0.06
7175 H 85.44944261406384 45.08850280821423 106.63894292297061 H 0.0 **** 0.06
7176 C 60.33398904946449 86.38624327460218 32.85455407624255 C 0.0 **** -0.24
7177 H 59.458828083040714 85.76108851964051 32.682419123286195 H 0.0 **** 0.06
7178 H 60.02453875406087 87.32600185872012 33.31287172268321 H 0.0 **** 0.06
7179 H 60.82724809374781 86.5910578104737 31.90473188405531 H 0.0 **** 0.06
7180 H 61.026484496517554 85.86833485506287 33.519382406789305 H 0.0 **** 0.06
7181 C 85.68929028246124 79.86631279977794 62.249552315992815 C 0.0 **** -0.24
7182 H 84.79911537913821 79.7508585019086 62.86800494917725 H 0.0 **** 0.06
7183 H 85.60802232852853 79.22305094996742 61.37323420611712 H 0.0 **** 0.06
7184 H 86.5708649248807 79.5871200756003 62.82528333840712 H 0.0 **** 0.06
7185 H 85.77635502266106 80.90554909183946 61.9305124653297 H 0.0 **** 0.06
7186 C 60.10542810678089 91.35257797946878 48.479300283780994 C 0.0 **** -0.24
7187 H 59.9479858031242 91.7504694037107 47.47721844848087 H 0.0 **** 0.06
7188 H 59.477168918878476 90.47378248980772 48.62361443527763 H 0.0 **** 0.06
7189 H 59.845089397946396 92.11126015605925 49.21655313340019 H 0.0 **** 0.06
7190 H 61.152381183628364 91.07442471408785 48.59880219743777 H 0.0 **** 0.06
7191 C 39.01457093391886 70.6941792902245 83.4588296064747 C 0.0 **** -0.24
7192 H 39.955268046741196 71.15448590261684 83.76025198601413 H 0.0 **** 0.06
7193 H 38.49881843083784 71.3485314746996 82.75595886002627 H 0.0 **** 0.06
7194 H 38.388271138370115 70.53868191484224 84.33793704754547 H 0.0 **** 0.06
7195 H 39.2162569681013 69.73407920010607 82.98217528733039 H 0.0 **** 0.06
7196 C 44.40794633731172 2.087486504846267 88.63066050910425 C 0.0 **** -0.24
7197 H 44.596846435529166 3.0719942062196415 89.05849463641354 H 0.0 **** 0.06
7198 H 44.79863812508947 2.052771098208799 87.61279089185685 H 0.0 **** 0.06
7199 H 43.33415191767088 1.8987184241637545 88.61426228524917 H 0.0 **** 0.06
7200 H 44.90140573910644 1.327111069026973 89.23535438783465 H 0.0 **** 0.06
7201 C 35.87799735873015 91.64508074124335 83.85019550775738 C 0.0 **** -0.24
7202 H 36.25606641453127 92.54862539287407 84.32892985773717 H 0.0 **** 0.06
7203 H 35.901943551812536 90.81954328210841 84.56145508402429 H 0.0 **** 0.06
7204 H 36.502211589456635 91.40140615745985 82.98970898197717 H 0.0 **** 0.06
7205 H 34.852412113898495 91.81179817072893 83.51911249137143 H 0.0 **** 0.06
7206 C 59.420541297087915 53.28416860026715 51.60592467189635 C 0.0 **** -0.24
7207 H 60.02854347536892 52.80252112765385 52.37187557185992 H 0.0 **** 0.06
7208 H 59.754703813942825 52.959237186730036 50.62043052589273 H 0.0 **** 0.06
7209 H 59.52460507641656 54.365665175532456 51.68692186419554 H 0.0 **** 0.06
7210 H 58.37537099930405 53.00798516334993 51.74499825076324 H 0.0 **** 0.06
7211 C 82.64896613071176 74.41491802845343 59.335759696676234 C 0.0 **** -0.24
7212 H 83.62938078775235 74.61588882973291 58.90492851881385 H 0.0 **** 0.06
7213 H 82.76694386008543 74.08677726468676 60.368796788025804 H 0.0 **** 0.06
7214 H 82.15179979065718 73.63393956865173 58.76014958737301 H 0.0 **** 0.06
7215 H 82.04770788773996 75.324131708452 59.31009355989835 H 0.0 **** 0.06
7216 C 80.24055687320458 71.41086610093106 67.61340452473215 C 0.0 **** -0.24
7217 H 80.02925756298265 70.40723402110956 67.98214284313792 H 0.0 **** 0.06
7218 H 79.85440960400987 71.51435901107885 66.59880940206497 H 0.0 **** 0.06
7219 H 81.31747610935759 71.57816497746836 67.61122836077692 H 0.0 **** 0.06
7220 H 79.76024786910125 72.14422806033684 68.26126887078783 H 0.0 **** 0.06
7221 C 94.48008114563109 102.19629925832294 103.48394081632355 C 0.0 **** -0.24
7222 H 94.32990669986893 102.89885250047939 104.30475892449152 H 0.0 **** 0.06
7223 H 95.42361829480987 101.66928310178253 103.62537391694842 H 0.0 **** 0.06
7224 H 94.50557436175251 102.7404755703121 102.54046061472769 H 0.0 **** 0.06
7225 H 93.66100611828992 101.47770682427397 103.46733676753962 H 0.0 **** 0.06
7226 C 35.5549612867992 93.10208228933652 10.982725203430832 C 0.0 **** -0.24
7227 H 35.880558438120005 92.6205194141461 10.059798080840054 H 0.0 **** 0.06
7228 H 36.42798511687914 93.41186903887875 11.55837034916263 H 0.0 **** 0.06
7229 H 34.96279436684735 92.39906405478715 11.568821118781585 H 0.0 **** 0.06
7230 H 34.94981550175763 93.97540085857487 10.741439238570791 H 0.0 **** 0.06
7231 C 72.6036822828896 59.86895256834936 94.95191908933766 C 0.0 **** -0.24
7232 H 72.4011382547499 60.76621505338039 95.536244881186 H 0.0 **** 0.06
7233 H 73.19003310357587 59.17062649039781 95.55094013408994 H 0.0 **** 0.06
7234 H 73.16390788440856 60.13798228250033 94.05677442591065 H 0.0 **** 0.06
7235 H 71.66209962533341 59.401532765253705 94.66502102348866 H 0.0 **** 0.06
7236 C 68.41643825013037 59.434218109731326 36.11892112289863 C 0.0 **** -0.24
7237 H 69.45218443031189 59.214163505371275 35.862210230645616 H 0.0 **** 0.06
7238 H 68.02937367395629 58.65059314478873 36.77026023327912 H 0.0 **** 0.06
7239 H 67.81785774439385 59.47787927612071 35.208343918221175 H 0.0 **** 0.06
7240 H 68.3652948343103 60.39320390190058 36.633949551290954 H 0.0 **** 0.06
7241 C 99.64454225269658 37.5705793673429 31.155895228693453 C 0.0 **** -0.24
7242 H 99.87424116709954 36.83979788768127 31.932470161615925 H 0.0 **** 0.06
7243 H 100.56327123038376 37.86094781615279 30.647692641405115 H 0.0 **** 0.06
7244 H 99.18534107225807 38.44865882651115 31.609532117500805 H 0.0 **** 0.06
7245 H 98.95369867160122 37.130155001768685 30.43684916657196 H 0.0 **** 0.06
7246 C 42.338350815680364 14.870578958953615 4.168348991579208 C 0.0 **** -0.24
7247 H 42.61985218130046 14.245590814149864 5.015660913435099 H 0.0 **** 0.06
7248 H 42.773560745528904 14.461926835667612 3.2560697076267644 H 0.0 **** 0.06
7249 H 42.7081012535664 15.883817933389992 4.3252154819304565 H 0.0 **** 0.06
7250 H 41.252579360264754 14.890189087835381 4.075502410546207 H 0.0 **** 0.06
7251 C 17.519070804172145 89.4210700095531 70.76180288513288 C 0.0 **** -0.24
7252 H 16.892064145308268 89.71007125507306 71.60605740717057 H 0.0 **** 0.06
7253 H 18.47256768060049 89.043116558095 71.13073865621823 H 0.0 **** 0.06
7254 H 17.693280174349695 90.28851216263772 70.12472287441447 H 0.0 **** 0.06
7255 H 17.01653579917621 88.64229146192125 70.18728892022555 H 0.0 **** 0.06
7256 C 13.482489080929838 22.901367811990838 91.31828538396547 C 0.0 **** -0.24
7257 H 12.704356218263058 23.663271225658377 91.36307532187708 H 0.0 **** 0.06
7258 H 14.125281520263002 22.986906843636405 92.19458081053867 H 0.0 **** 0.06
7259 H 14.078168750236046 23.04269750159375 90.41623251614713 H 0.0 **** 0.06
7260 H 13.023371152211041 21.913754821714747 91.29965897351386 H 0.0 **** 0.06
7261 C 64.45642699568262 72.26031068480174 38.861817682343656 C 0.0 **** -0.24
7262 H 63.95617659688941 71.31487628306479 38.651881880529686 H 0.0 **** 0.06
7263 H 64.03469110248031 73.0423216486025 38.23100918509954 H 0.0 **** 0.06
7264 H 65.5218148783384 72.16181197895347 38.65607676578537 H 0.0 **** 0.06
7265 H 64.31157361978464 72.52147483908726 39.91135549097538 H 0.0 **** 0.06
7266 C 32.34758217848989 32.36494605847692 104.24241548870077 C 0.0 **** -0.24
7267 H 33.39761164686519 32.61345635047188 104.39999564561022 H 0.0 **** 0.06
7268 H 31.736823237097866 32.880760755155116 104.98355814326682 H 0.0 **** 0.06
7269 H 32.21019760955744 31.28767894894792 104.34453228795246 H 0.0 **** 0.06
7270 H 32.04716834628513 32.67623466990516 103.24262422350563 H 0.0 **** 0.06
7271 C 38.07481618023371 43.00553461709603 66.63490426530271 C 0.0 **** -0.24
7272 H 38.847291129610966 42.514554112896974 67.22722118057669 H 0.0 **** 0.06
7273 H 38.21651615564551 42.76484045387957 65.58163691511228 H 0.0 **** 0.06
7274 H 38.14271154178684 44.08523773898747 66.77360958256787 H 0.0 **** 0.06
7275 H 37.093470823656986 42.65856420759866 66.95831349454738 H 0.0 **** 0.06
7276 C 45.14807475306892 76.11434176173147 67.57229920816945 C 0.0 **** -0.24
7277 H 45.07510983639461 75.9529508075677 66.497174215651 H 0.0 **** 0.06
7278 H 44.698010959526066 77.07351267950257 67.82738824764937 H 0.0 **** 0.06
7279 H 46.19695845393752 76.1138695567843 67.86985507469592 H 0.0 **** 0.06
7280 H 44.62253155171029 75.31504419927622 68.09575073615326 H 0.0 **** 0.06
7281 C 103.61468251867994 54.22515757569633 12.954428148900721 C 0.0 **** -0.24
7282 H 103.04017192059594 55.04911829767761 13.378889049805473 H 0.0 **** 0.06
7283 H 104.65228533647077 54.53305493870181 12.828379439732643 H 0.0 **** 0.06
7284 H 103.19552257291697 53.95271227643815 11.985592648267989 H 0.0 **** 0.06
7285 H 103.56767365481505 53.366978605428386 13.624738318974853 H 0.0 **** 0.06
7286 C 106.14962349034953 92.41587777077761 75.33039467593872 C 0.0 **** -0.24
7287 H 105.44846682676149 92.84761497217987 76.04410049534968 H 0.0 **** 0.06
7288 H 105.69871775935417 91.54122408502947 74.86127243896496 H 0.0 **** 0.06
7289 H 107.06127881464961 92.11943916980488 75.84987274781315 H 0.0 **** 0.06
7290 H 106.39170373703837 93.15484324771668 74.5661120597068 H 0.0 **** 0.06
7291 C 29.030410021514854 91.01968210802175 13.730962448561286 C 0.0 **** -0.24
7292 H 28.482479745448842 91.72085542178363 14.360864130582684 H 0.0 **** 0.06
7293 H 30.052445239793798 91.37453544339402 13.597265620934593 H 0.0 **** 0.06
7294 H 28.540478976320685 90.94478081080578 12.760734113336355 H 0.0 **** 0.06
7295 H 29.045457368780546 90.03970342227012 14.207828315135771 H 0.0 **** 0.06
7296 C 12.485788984740424 21.143604553218875 49.99768255441762 C 0.0 **** -0.24
7297 H 13.417377360406505 21.346499011508584 50.52728779321056 H 0.0 **** 0.06
7298 H 11.689779043404371 21.760093441467582 50.41450661848628 H 0.0 **** 0.06
7299 H 12.227359472128 20.090673713546128 50.10850008001683 H 0.0 **** 0.06
7300 H 12.612174769201857 21.37768734350227 48.93996678266477 H 0.0 **** 0.06
7301 C 12.224256932420971 29.208822817699456 28.564292410743718 C 0.0 **** -0.24
7302 H 12.532155754747322 28.90958040933282 27.562483548059532 H 0.0 **** 0.06
7303 H 12.251415454294985 28.343340288788454 29.22650395111549 H 0.0 **** 0.06
7304 H 11.210180750339191 29.607674560121836 28.528591995647503 H 0.0 **** 0.06
7305 H 12.902772584719528 29.975397384497796 28.939085244482982 H 0.0 **** 0.06
7306 C 51.72370735691917 29.40023471189278 41.8755491881966 C 0.0 **** -0.24
7307 H 50.90591933028124 29.714642683113908 41.22805863088723 H 0.0 **** 0.06
7308 H 52.1142043252649 30.265645532484314 42.412703748875856 H 0.0 **** 0.06
7309 H 52.516417590666116 28.958342826853283 41.27206700715868 H 0.0 **** 0.06
7310 H 51.35777363983093 28.663179561353076 42.59109232156544 H 0.0 **** 0.06
7311 C 2.5975009114428724 62.973194203284294 64.78530507948 C 0.0 **** -0.24
7312 H 3.369628315354264 63.20599299539185 65.51964272118376 H 0.0 **** 0.06
7313 H 1.8512148132264103 63.76727877828719 64.77894667179272 H 0.0 **** 0.06
7314 H 2.121464983057569 62.02825785177792 65.04824579350463 H 0.0 **** 0.06
7315 H 3.05016672547103 62.889500489973 63.79735886467459 H 0.0 **** 0.06
7316 C 66.72232450026257 42.75445544882865 62.63655105763738 C 0.0 **** -0.24
7317 H 66.17253291805196 42.924843508081665 61.710505233872 H 0.0 **** 0.06
7318 H 66.74457614321153 41.68592242746951 62.853822354971584 H 0.0 **** 0.06
7319 H 66.22934670056162 43.28232985363536 63.45316371301408 H 0.0 **** 0.06
7320 H 67.74165299160546 43.124202953521774 62.52689294618935 H 0.0 **** 0.06
7321 C 96.61157534960176 100.5695922256773 97.45909381306826 C 0.0 **** -0.24
7322 H 95.69823487698733 99.9748361190463 97.43425267281198 H 0.0 **** 0.06
7323 H 96.42556484966525 101.49888630440415 97.99835382200071 H 0.0 **** 0.06
7324 H 96.92396881151984 100.79725483216419 96.4392086047598 H 0.0 **** 0.06
7325 H 97.39770165638026 100.00744605464962 97.96225658671298 H 0.0 **** 0.06
7326 C 105.16657518819281 12.666981831563547 41.124062865176825 C 0.0 **** -0.24
7327 H 105.92349780263515 13.43564471602749 41.27456255223126 H 0.0 **** 0.06
7328 H 104.36857693393917 13.060997049913777 40.4944856136386 H 0.0 **** 0.06
7329 H 104.75547308964951 12.367735067526363 42.08861052239331 H 0.0 **** 0.06
7330 H 105.61867563540133 11.802138697685624 40.63862363936815 H 0.0 **** 0.06
7331 C 5.453180233086044 78.34894126974164 46.47895540626638 C 0.0 **** -0.24
7332 H 4.6867787546071185 77.57885249051847 46.382116206161925 H 0.0 **** 0.06
7333 H 6.427723330722614 77.92329824681119 46.24168460367872 H 0.0 **** 0.06
7334 H 5.460413735337966 78.72671808512685 47.50115256966069 H 0.0 **** 0.06
7335 H 5.23525041180784 79.16584194194812 45.790266333801355 H 0.0 **** 0.06
7336 C 1.49892858504046 103.85527822108565 71.14505007600039 C 0.0 **** -0.24
7337 H 1.2120801522407874 104.80686286346719 71.59301923705311 H 0.0 **** 0.06
7338 H 1.9304876134986557 104.03426923924366 70.1600486819156 H 0.0 **** 0.06
7339 H 0.6193688982376102 103.21976554206589 71.04839066618068 H 0.0 **** 0.06
7340 H 2.23538725511213 103.36277429971932 71.78094651169478 H 0.0 **** 0.06
7341 C 62.28122336490651 86.73303364208874 54.956814509089924 C 0.0 **** -0.24
7342 H 61.919438757187265 87.23763851680627 55.85248939930341 H 0.0 **** 0.06
7343 H 62.838121410516464 85.83960321775947 55.2426316540996 H 0.0 **** 0.06
7344 H 62.93396316999156 87.4049287494679 54.39964630134341 H 0.0 **** 0.06
7345 H 61.43347204498656 86.44892621154702 54.333445942776876 H 0.0 **** 0.06
7346 C 42.99746141876403 83.18508166088125 16.746241484258505 C 0.0 **** -0.24
7347 H 42.934614137127795 83.08617627801166 15.662782380608036 H 0.0 **** 0.06
7348 H 43.30798172234033 82.23418433369338 17.18102556108893 H 0.0 **** 0.06
7349 H 42.020544459743036 83.46466795925977 17.14258796695482 H 0.0 **** 0.06
7350 H 43.72590864907803 83.95609233177521 16.999427059725633 H 0.0 **** 0.06
7351 C 68.98492606197658 72.46529262587134 27.787321909099404 C 0.0 **** -0.24
7352 H 68.92718931322761 72.71811352623355 28.845775376755952 H 0.0 **** 0.06
7353 H 68.52997113660066 73.26172386248304 27.197981572957843 H 0.0 **** 0.06
7354 H 68.45349619123408 71.53003356207047 27.608161268749768 H 0.0 **** 0.06
7355 H 70.02971399557421 72.35077666137046 27.498501938492424 H 0.0 **** 0.06
7356 C 88.93901589456222 38.66004765955586 30.787619600723048 C 0.0 **** -0.24
7357 H 89.37135437364893 37.74850197780813 30.376552018347866 H 0.0 **** 0.06
7358 H 88.02421591485097 38.41678783969439 31.327485636153853 H 0.0 **** 0.06
7359 H 88.71049561822718 39.35217738323098 29.977232883731716 H 0.0 **** 0.06
7360 H 89.65157539426498 39.12428500872704 31.470243510596248 H 0.0 **** 0.06
7361 C 40.7531027212326 25.578036572616284 28.510521269421645 C 0.0 **** -0.24
7362 H 41.703420397345035 25.600308755247198 27.976897822424377 H 0.0 **** 0.06
7363 H 40.12070877896084 24.79411537824869 28.093289690963758 H 0.0 **** 0.06
7364 H 40.25585445183676 26.542273508988245 28.406757203679746 H 0.0 **** 0.06
7365 H 40.93418505938164 25.374739510023645 29.565778669000508 H 0.0 **** 0.06
7366 C 20.63258113080802 38.84482388869458 31.3457149100893 C 0.0 **** -0.24
7367 H 19.660968672849037 38.61866638860435 31.785367888026343 H 0.0 **** 0.06
7368 H 21.280059638870924 39.28610420614788 32.102747883011574 H 0.0 **** 0.06
7369 H 20.502979155712282 39.54808475636899 30.522664961005518 H 0.0 **** 0.06
7370 H 21.08419384396973 37.926161474036576 30.970889556552095 H 0.0 **** 0.06
7371 C 79.60576294558365 38.38532945935513 18.635371059148596 C 0.0 **** -0.24
7372 H 79.07603792795885 39.328700357725886 18.50268924500108 H 0.0 **** 0.06
7373 H 80.63538683649301 38.58616111556281 18.931963390954508 H 0.0 **** 0.06
7374 H 79.5992903352132 37.830476333711445 17.69741754153462 H 0.0 **** 0.06
7375 H 79.11177010178909 37.7983086435544 19.40890728177152 H 0.0 **** 0.06
7376 C 51.81120868303549 2.885055484317264 85.37383759699327 C 0.0 **** -0.24
7377 H 51.11588477833385 2.7206593613340058 84.55023373419084 H 0.0 **** 0.06
7378 H 52.70625876508274 2.282487115621623 85.2193402909607 H 0.0 **** 0.06
7379 H 51.33589355937056 2.5985439229670444 86.31227000892775 H 0.0 **** 0.06
7380 H 52.08408272034217 3.939124898126181 85.41297951385985 H 0.0 **** 0.06
7381 C 76.15288193144036 94.49774365760086 30.679358294312458 C 0.0 **** -0.24
7382 H 76.56642243795748 93.52499392066213 30.41580214783017 H 0.0 **** 0.06
7383 H 75.8233163617658 95.01019073078109 29.775762576504675 H 0.0 **** 0.06
7384 H 76.91847276340242 95.0943564816692 31.17709678239119 H 0.0 **** 0.06
7385 H 75.3048835142067 94.36143043473527 31.350654135918397 H 0.0 **** 0.06
7386 C 54.55052338303954 68.5232952611553 102.34257371849434 C 0.0 **** -0.24
7387 H 53.856899365904 69.28581720885123 101.98826353120958 H 0.0 **** 0.06
7388 H 54.80339247518602 68.71824674198915 103.38546485242635 H 0.0 **** 0.06
7389 H 55.45652656535199 68.546478183678 101.73704544475004 H 0.0 **** 0.06
7390 H 54.083465055759866 67.54173065233063 102.26046917259437 H 0.0 **** 0.06
7391 C 43.59582013037061 3.3299907016623234 82.66563766410897 C 0.0 **** -0.24
7392 H 43.99340519921793 2.3801764904468428 83.02472377263759 H 0.0 **** 0.06
7393 H 43.77105579276927 4.102744060051659 83.41432947683712 H 0.0 **** 0.06
7394 H 42.5247430646227 3.2302870831393227 82.48826281171672 H 0.0 **** 0.06
7395 H 44.09450294067481 3.603501612563793 81.73571726421339 H 0.0 **** 0.06
7396 C 35.415770403719705 32.30235631465055 76.69118547574104 C 0.0 **** -0.24
7397 H 36.28493184436596 32.39935734941028 77.34107073879836 H 0.0 **** 0.06
7398 H 35.32468324104835 33.19377342386721 76.07086188601293 H 0.0 **** 0.06
7399 H 34.51841496083529 32.18999047549406 77.29975004928049 H 0.0 **** 0.06
7400 H 35.53471472533073 31.425629817697967 76.05371653215725 H 0.0 **** 0.06
7401 C 50.09335547036682 91.48260556786322 12.65216851006127 C 0.0 **** -0.24
7402 H 50.38259395823707 90.4407523262049 12.516261911458024 H 0.0 **** 0.06
7403 H 50.91691843131861 92.03063704677713 13.11235907834443 H 0.0 **** 0.06
7404 H 49.2162218450581 91.53457771293374 13.29644963153099 H 0.0 **** 0.06
7405 H 49.859706036062846 91.92370605979899 11.6824350046368 H 0.0 **** 0.06
7406 C 58.019397093879405 50.32996436334662 17.37814359405047 C 0.0 **** -0.24
7407 H 57.20380331642818 50.81934218498429 17.91175759889174 H 0.0 **** 0.06
7408 H 57.60896280451405 49.598048869264346 16.68197253496021 H 0.0 **** 0.06
7409 H 58.67107821185469 49.8277793017574 18.093012521237284 H 0.0 **** 0.06
7410 H 58.591210506190514 51.07600710591868 16.826747791274386 H 0.0 **** 0.06
7411 C 84.08981652018804 26.723221928691032 85.13955476728904 C 0.0 **** -0.24
7412 H 84.78885826095905 27.391798710873445 84.63707049868157 H 0.0 **** 0.06
7413 H 84.64450221189514 25.96921077356194 85.69842477810317 H 0.0 **** 0.06
7414 H 83.45807699757586 26.235333182654415 84.39813019511342 H 0.0 **** 0.06
7415 H 83.46677960946408 27.298172959354417 85.82509328211177 H 0.0 **** 0.06
7416 C 24.033736744391632 25.74227359852505 79.15005401433203 C 0.0 **** -0.24
7417 H 24.777406698838945 26.319165976657214 79.70158821941716 H 0.0 **** 0.06
7418 H 24.483092801519618 24.815300427639762 78.79561710477472 H 0.0 **** 0.06
7419 H 23.682265979948255 26.325001589109938 78.29814079523811 H 0.0 **** 0.06
7420 H 23.19381792700659 25.512428963183023 79.80555422417098 H 0.0 **** 0.06
7421 C 32.17198455308677 73.53431932322037 65.61574641333638 C 0.0 **** -0.24
7422 H 31.279397748554146 74.15401409324583 65.70198966690624 H 0.0 **** 0.06
7423 H 33.039485570859895 74.09657443499506 65.96166532298389 H 0.0 **** 0.06
7424 H 32.31590602874684 73.24839579884116 64.57296928720902 H 0.0 **** 0.06
7425 H 32.052034586324034 72.6382228680088 66.22470196209143 H 0.0 **** 0.06
7426 C 26.05039202722557 89.77115771922986 100.03378920854314 C 0.0 **** -0.24
7427 H 25.79118548956245 90.46096077276557 99.22972236330227 H 0.0 **** 0.06
7428 H 25.46092595433842 88.85983029961363 99.93343090809131 H 0.0 **** 0.06
7429 H 25.836169140378956 90.23875917380543 100.99534741755727 H 0.0 **** 0.06
7430 H 27.111140447896133 89.528143662916 99.97674855766454 H 0.0 **** 0.06
7431 C 89.26597522638608 54.13004585014417 50.67420879245185 C 0.0 **** -0.24
7432 H 88.8285086995233 55.115503378990354 50.8377699647574 H 0.0 **** 0.06
7433 H 90.30645897769442 54.1363447054143 50.998450338284215 H 0.0 **** 0.06
7434 H 89.2168821216785 53.88289561432481 49.61319447215783 H 0.0 **** 0.06
7435 H 88.7097899114163 53.387069745836726 51.24631117544652 H 0.0 **** 0.06
7436 C 54.31663845383743 45.752523051776876 44.42615498284411 C 0.0 **** -0.24
7437 H 54.39810506011941 44.66729513885528 44.49137230954082 H 0.0 **** 0.06
7438 H 55.18429329044564 46.20983397106073 44.9011439200701 H 0.0 **** 0.06
7439 H 53.408835250498576 46.07942555924183 44.9339825488581 H 0.0 **** 0.06
7440 H 54.27464794843793 46.050929239194005 43.37898440525473 H 0.0 **** 0.06
7441 C 81.72513779601732 16.08555599659462 41.865119375470755 C 0.0 **** -0.24
7442 H 80.8516546494398 15.999827645461735 41.21856035912762 H 0.0 **** 0.06
7443 H 82.59568621861158 15.673153165866111 41.355974000377074 H 0.0 **** 0.06
7444 H 81.54895276129102 15.535292766269876 42.78921455640855 H 0.0 **** 0.06
7445 H 81.90296706331004 17.136653730338324 42.096893203380944 H 0.0 **** 0.06
7446 C 83.42781584275028 39.72042029845741 25.74682182097237 C 0.0 **** -0.24
7447 H 82.74966313567533 40.21609026783352 25.05350168542452 H 0.0 **** 0.06
7448 H 82.95103061873805 38.82287025270054 26.142389175858767 H 0.0 **** 0.06
7449 H 83.66664373883593 40.39710895624293 26.567812956013555 H 0.0 **** 0.06
7450 H 84.34458547069899 39.44475607016821 25.224937329103284 H 0.0 **** 0.06
7451 C 4.424970200281791 28.360341711438068 36.67465867627108 C 0.0 **** -0.24
7452 H 3.5584573259093872 28.860797980390714 37.106848065366194 H 0.0 **** 0.06
7453 H 4.162752226127793 27.333814108582402 36.41947344859204 H 0.0 **** 0.06
7454 H 5.240665218225331 28.358562788043585 37.39757857122322 H 0.0 **** 0.06
7455 H 4.73879242332896 28.890828199642698 35.77539207095141 H 0.0 **** 0.06
7456 C 53.04684586359687 48.93200062637425 25.486516188155747 C 0.0 **** -0.24
7457 H 53.95458526269914 48.85034745236223 24.88910625801688 H 0.0 **** 0.06
7458 H 52.564141598636326 47.955844868448395 25.549937944368907 H 0.0 **** 0.06
7459 H 52.3660590591567 49.643196493541325 25.016819951464726 H 0.0 **** 0.06
7460 H 53.301002790451975 49.278447704319035 26.487870446393828 H 0.0 **** 0.06
7461 C 60.63414592221713 32.899932388110756 79.73534017528942 C 0.0 **** -0.24
7462 H 61.414718152946364 32.14506324602414 79.8356014713616 H 0.0 **** 0.06
7463 H 61.023865102597924 33.86834670171885 80.05193213573546 H 0.0 **** 0.06
7464 H 59.78446194695772 32.627918913548285 80.36146357661619 H 0.0 **** 0.06
7465 H 60.316122000739796 32.95790970551889 78.69502528964847 H 0.0 **** 0.06
7466 C 59.43382609605133 53.22333410380125 78.60426902035351 C 0.0 **** -0.24
7467 H 58.69594813109893 52.503390695368324 78.2496871207075 H 0.0 **** 0.06
7468 H 58.9381581366283 54.166705998454944 78.83657166494007 H 0.0 **** 0.06
7469 H 60.18203102317375 53.38750181290007 77.82842233118927 H 0.0 **** 0.06
7470 H 59.91693496787697 52.83584122647741 79.50015724208578 H 0.0 **** 0.06
7471 C 12.99132562044798 45.05592338970084 3.655437006388979 C 0.0 **** -0.24
7472 H 13.691571656958615 44.222629316749504 3.6017233129302326 H 0.0 **** 0.06
7473 H 12.445245032850323 45.13335602352453 2.7154221800791163 H 0.0 **** 0.06
7474 H 13.540959144248347 45.980411421804575 3.8344135628231584 H 0.0 **** 0.06
7475 H 12.287845940233808 44.88741783941552 4.471561373841496 H 0.0 **** 0.06
7476 C 10.77787275631448 36.214077991023174 100.78911162899392 C 0.0 **** -0.24
7477 H 10.6476726599289 36.466811312251565 101.8415328968233 H 0.0 **** 0.06
7478 H 9.807891037107083 35.983686348670886 100.3484475119393 H 0.0 **** 0.06
7479 H 11.432211375334532 35.34653525497447 100.70288352635563 H 0.0 **** 0.06
7480 H 11.224183097539111 37.059873871128815 100.26543410610556 H 0.0 **** 0.06
7481 C 93.8022613915636 46.91544238976076 10.9305328484933 C 0.0 **** -0.24
7482 H 94.71855439722101 46.9910570961065 11.515541588254507 H 0.0 **** 0.06
7483 H 93.77685062152369 47.71549584592105 10.191351935546365 H 0.0 **** 0.06
7484 H 92.94086578697954 47.0038414390079 11.59310809775046 H 0.0 **** 0.06
7485 H 93.77329059648531 45.95027589917897 10.424257159460552 H 0.0 **** 0.06
7486 C 80.92008595790887 29.04448110433742 106.29313012141779 C 0.0 **** -0.24
7487 H 80.4729065100459 28.415316572143013 105.52288127456899 H 0.0 **** 0.06
7488 H 81.95893243410369 29.25134861589629 106.03325783634693 H 0.0 **** 0.06
7489 H 80.88067754516085 28.528277507614916 107.25158641383507 H 0.0 **** 0.06
7490 H 80.36851593625742 29.981762900592173 106.36091667568934 H 0.0 **** 0.06
7491 C 38.89338381082257 101.962330204798 77.30747440255612 C 0.0 **** -0.24
7492 H 38.42104962368967 101.41042271445887 76.49463046949776 H 0.0 **** 0.06
7493 H 38.87731194911564 103.0277658474951 77.08000957007009 H 0.0 **** 0.06
7494 H 39.925229826766696 101.62994271787318 77.4210352422798 H 0.0 **** 0.06
7495 H 38.34882559292177 101.77987316032127 78.23409271543908 H 0.0 **** 0.06
7496 C 80.26349200377102 35.60220693933104 68.47591310305906 C 0.0 **** -0.24
7497 H 81.21272496578374 35.08021772776412 68.3527068474479 H 0.0 **** 0.06
7498 H 80.11853157118348 35.85019153197075 69.52742431360231 H 0.0 **** 0.06
7499 H 79.44995168523849 34.96071403675737 68.13779966948671 H 0.0 **** 0.06
7500 H 80.27400328251146 36.51784172662466 67.88386817352104 H 0.0 **** 0.06
7501 C 90.99200081358913 1.2588587815661167 67.69023154833337 C 0.0 **** -0.24
7502 H 90.26386752276264 1.5155079745779743 66.92144564664045 H 0.0 **** 0.06
7503 H 91.1144661935488 2.102023486552791 68.36983378756213 H 0.0 **** 0.06
7504 H 91.94881839046434 1.0273920715442948 67.2222700197193 H 0.0 **** 0.06
7505 H 90.64019449178585 0.3904857011169067 68.24813051576774 H 0.0 **** 0.06
7506 C 67.14807256838093 4.863396649459219 86.04668228023837 C 0.0 **** -0.24
7507 H 67.7629229957373 5.182689637558809 85.20446989453376 H 0.0 **** 0.06
7508 H 66.50029214548762 4.043686036689195 85.73375448471944 H 0.0 **** 0.06
7509 H 66.5382515837323 5.69909380076561 86.3883155540525 H 0.0 **** 0.06
7510 H 67.79255104390177 4.527703598235689 86.8588308844702 H 0.0 **** 0.06
7511 C 4.166911319760175 11.566155076528801 99.28066707337736 C 0.0 **** -0.24
7512 H 3.840928654329673 10.577877060083466 99.60354867745592 H 0.0 **** 0.06
7513 H 3.6868227129060642 11.816124244144419 98.33432090401983 H 0.0 **** 0.06
7514 H 5.249158968169013 11.5670895698795 99.15096410256072 H 0.0 **** 0.06
7515 H 3.890903109040437 12.30318840233663 100.03519678099448 H 0.0 **** 0.06
7516 C 97.16413355914959 82.9602039071726 89.79932894778648 C 0.0 **** -0.24
7517 H 97.27355278169877 83.93292736599366 89.3177894342946 H 0.0 **** 0.06
7518 H 96.60470232831965 83.07607337097235 90.72789165235965 H 0.0 **** 0.06
7519 H 98.15099725665391 82.55168022660237 90.0177875737504 H 0.0 **** 0.06
7520 H 96.62896409137524 82.28315881806307 89.13368844059917 H 0.0 **** 0.06
7521 C 35.752147501607745 41.368516517923766 18.95798435749765 C 0.0 **** -0.24
7522 H 36.166812149654966 42.04022017740441 18.20657760061232 H 0.0 **** 0.06
7523 H 36.318009947470465 41.465345570584375 19.884248093332133 H 0.0 **** 0.06
7524 H 35.81398570923342 40.339962984182456 18.60043794110797 H 0.0 **** 0.06
7525 H 34.70913704848577 41.62727989623874 19.140621757340938 H 0.0 **** 0.06
7526 C 22.922529129475162 86.9902536850644 92.3094145534533 C 0.0 **** -0.24
7527 H 22.33903981065086 86.36209482527471 91.63573257710988 H 0.0 **** 0.06
7528 H 23.091559304605347 86.45874470941455 93.24540957082993 H 0.0 **** 0.06
7529 H 22.37940734273505 87.91382844310424 92.5070127527113 H 0.0 **** 0.06
7530 H 23.881344664312667 87.22452736128912 91.84647574383894 H 0.0 **** 0.06
7531 C 9.459155613915073 39.663085768525235 11.909119055301687 C 0.0 **** -0.24
7532 H 9.959038930515078 38.71484833523121 12.106598532912926 H 0.0 **** 0.06
7533 H 9.814430930433787 40.41460711768249 12.614869623076743 H 0.0 **** 0.06
7534 H 8.382169910237991 39.53696989868817 12.024433125058579 H 0.0 **** 0.06
7535 H 9.680265521808622 39.985567213878426 10.892408790100632 H 0.0 **** 0.06
7536 C 49.408665400687255 102.32256216358721 96.5064528089301 C 0.0 **** -0.24
7537 H 49.54670864604893 102.69154254748611 95.49062644577705 H 0.0 **** 0.06
7538 H 50.15913270857496 101.56096334599658 96.72061352890222 H 0.0 **** 0.06
7539 H 48.413841616805854 101.88998220535953 96.60522960201534 H 0.0 **** 0.06
7540 H 49.51813156766147 103.14775036250731 97.20958527553763 H 0.0 **** 0.06
7541 C 102.70669933643677 1.7140164433341738 62.375128534785645 C 0.0 **** -0.24
7542 H 102.6630672068604 0.7592620326310566 62.89995231138994 H 0.0 **** 0.06
7543 H 101.80055797989448 1.846498810832287 61.785052342156334 H 0.0 **** 0.06
7544 H 103.57559782940865 1.7261089823620068 61.71693639112985 H 0.0 **** 0.06
7545 H 102.78965686344247 2.5226556284777644 63.1010812947429 H 0.0 **** 0.06
7546 C 98.80805451464146 103.81935270975907 30.36164357517677 C 0.0 **** -0.24
7547 H 99.82312142482321 103.49653870050749 30.595393530241154 H 0.0 **** 0.06
7548 H 98.14234073504313 102.9550590769017 30.37191428907886 H 0.0 **** 0.06
7549 H 98.79101743988939 104.27994711593432 29.373856532827574 H 0.0 **** 0.06
7550 H 98.47631714605417 104.54239454655763 31.106680835569307 H 0.0 **** 0.06
7551 C 4.264010529032109 12.942741122575399 51.577276462610286 C 0.0 **** -0.24
7552 H 3.753108394102167 12.432082061620008 52.39248867990933 H 0.0 **** 0.06
7553 H 3.9299668075305547 12.531384269105104 50.624561366046365 H 0.0 **** 0.06
7554 H 5.340089388157924 12.802229008263595 51.677373035019464 H 0.0 **** 0.06
7555 H 4.032374620175065 14.00765510805104 51.614916376235094 H 0.0 **** 0.06
7556 C 61.61089327148596 13.590408004642285 81.54109960112771 C 0.0 **** -0.24
7557 H 62.33229194674573 13.433117474481577 80.73921472716123 H 0.0 **** 0.06
7558 H 60.725605152772005 12.982063581336348 81.35669324568212 H 0.0 **** 0.06
7559 H 61.328674081461486 14.642550309648755 81.5741388126736 H 0.0 **** 0.06
7560 H 62.057546787037836 13.304076569337212 82.49243528363786 H 0.0 **** 0.06
7561 C 25.267329572026483 7.674524931259114 97.48773104962768 C 0.0 **** -0.24
7562 H 25.253796328368992 6.713356322898818 96.97538215242626 H 0.0 **** 0.06
7563 H 24.93956682678214 7.540609042982666 98.51997034012706 H 0.0 **** 0.06
7564 H 24.596077258362357 8.367076211613636 96.97974111859205 H 0.0 **** 0.06
7565 H 26.280184600906523 8.076988048223498 97.47804446073447 H 0.0 **** 0.06
7566 C 99.00744005532556 101.46394112228057 67.8726608838341 C 0.0 **** -0.24
7567 H 98.32119031205262 100.91847497950982 67.22411811021328 H 0.0 **** 0.06
7568 H 99.88753716963659 101.761371729887 67.30235849166422 H 0.0 **** 0.06
7569 H 99.31014581427766 100.82360381873292 68.70051957846022 H 0.0 **** 0.06
7570 H 98.50968584794985 102.3513977555686 68.26233656709502 H 0.0 **** 0.06
7571 C 44.112121225368256 21.09843198978382 9.684630823281793 C 0.0 **** -0.24
7572 H 44.388768082794144 20.097901110728234 9.352353560967359 H 0.0 **** 0.06
7573 H 44.23318342519531 21.801857804364918 8.860745041578582 H 0.0 **** 0.06
7574 H 44.75325329543448 21.394811099642602 10.51415463156232 H 0.0 **** 0.06
7575 H 43.07166645828275 21.09683790082928 10.011152021230615 H 0.0 **** 0.06
7576 C 6.001306720275835 18.091302029445842 7.374259752832856 C 0.0 **** -0.24
7577 H 5.593214509621234 17.79054444376635 6.4097840982287835 H 0.0 **** 0.06
7578 H 5.636117028800641 17.41625468598548 8.149423841801607 H 0.0 **** 0.06
7579 H 5.685573382688375 19.10974028079164 7.600570812743541 H 0.0 **** 0.06
7580 H 7.089574540735157 18.04751486363341 7.337592073989995 H 0.0 **** 0.06
7581 C 68.22154516407835 69.97348828039762 4.501101387414536 C 0.0 **** -0.24
7582 H 69.03262968744457 69.82711330400952 3.7878468988092493 H 0.0 **** 0.06
7583 H 67.34143785564089 70.34867303910738 3.9788378235314212 H 0.0 **** 0.06
7584 H 68.53056841431027 70.6943418678348 5.2585368481862815 H 0.0 **** 0.06
7585 H 67.98387341027563 69.02338838219464 4.979805929785357 H 0.0 **** 0.06
7586 C 14.874018418847061 4.7439951203880355 40.9846859611454 C 0.0 **** -0.24
7587 H 15.50832047490158 5.092148680947702 41.79975080335694 H 0.0 **** 0.06
7588 H 13.881541843728993 5.185817359365345 41.0831955950903 H 0.0 **** 0.06
7589 H 14.794547594920676 3.6576716130602875 41.024901997494254 H 0.0 **** 0.06
7590 H 15.310794911808433 5.041771735673905 40.031346515312975 H 0.0 **** 0.06
7591 C 81.52694255267494 104.3733776968991 71.76512682153349 C 0.0 **** -0.24
7592 H 80.64118503403057 104.02649089066435 71.23186241924417 H 0.0 **** 0.06
7593 H 81.86637909576012 105.31388133722211 71.33051956419462 H 0.0 **** 0.06
7594 H 82.31680576041487 103.62690752350198 71.68129901133629 H 0.0 **** 0.06
7595 H 81.28160555493338 104.52661618450148 72.81554929973282 H 0.0 **** 0.06
7596 C 1.8969103753369154 14.345831165239005 56.96065174938116 C 0.0 **** -0.24
7597 H 1.5962289023391207 14.553059968774278 57.98759652681048 H 0.0 **** 0.06
7598 H 1.0888610310537246 14.623078826480551 56.28334331172232 H 0.0 **** 0.06
7599 H 2.1134871941798394 13.284321662838693 56.852708992225075 H 0.0 **** 0.06
7600 H 2.7878210129380676 14.92549412703724 56.71969162916986 H 0.0 **** 0.06
7601 C 58.27452122646886 8.027646947908067 91.07911094319485 C 0.0 **** -0.24
7602 H 59.30042271500406 8.284486155795548 91.34485425629843 H 0.0 **** 0.06
7603 H 58.2697925695353 7.110381338980801 90.49058300490208 H 0.0 **** 0.06
7604 H 57.838575745870656 8.837271421674757 90.49426700438919 H 0.0 **** 0.06
7605 H 57.6910020378339 7.8805658990265215 91.98751459411648 H 0.0 **** 0.06
7606 C 62.30906302257449 96.4125187186249 68.61483273842 C 0.0 **** -0.24
7607 H 62.810339213720795 95.93339459602294 69.45460346201719 H 0.0 **** 0.06
7608 H 62.35183443190613 95.75658139422576 67.74384154427179 H 0.0 **** 0.06
7609 H 62.80575296443081 97.35513783799497 68.38392144503888 H 0.0 **** 0.06
7610 H 61.26819465513479 96.60536117298224 68.87416751258127 H 0.0 **** 0.06
7611 C 63.33224790739331 102.40783170926734 96.35555541903635 C 0.0 **** -0.24
7612 H 63.09417527871079 103.34673653670052 95.8559837610146 H 0.0 **** 0.06
7613 H 63.00220939743048 102.45528126231751 97.39437731502834 H 0.0 **** 0.06
7614 H 64.4094854166164 102.24332146603234 96.32356392887857 H 0.0 **** 0.06
7615 H 62.8237432406375 101.58791119418213 95.84967994213727 H 0.0 **** 0.06
7616 C 28.20391672667465 47.641603038005655 12.427745715751826 C 0.0 **** -0.24
7617 H 27.860984076012404 48.06629307740823 11.484457711541069 H 0.0 **** 0.06
7618 H 29.23528392669904 47.943900162045026 12.608266727747093 H 0.0 **** 0.06
7619 H 28.146566616652454 46.55406547455476 12.378362146037375 H 0.0 **** 0.06
7620 H 27.571753657621887 48.00127069202469 13.240135880595233 H 0.0 **** 0.06
7621 C 101.00856343204083 56.47473974308619 27.45481082667743 C 0.0 **** -0.24
7622 H 100.86928014746032 57.53484878183451 27.669001737323924 H 0.0 **** 0.06
7623 H 100.20796835210419 56.12886215653842 26.798929707176285 H 0.0 **** 0.06
7624 H 100.9857650979328 55.90988958841089 28.38559766930166 H 0.0 **** 0.06
7625 H 101.96979976618309 56.326821034656376 26.962585802272827 H 0.0 **** 0.06
7626 C 105.01569294053408 17.595808858343332 75.40002633277018 C 0.0 **** -0.24
7627 H 105.42847070553073 18.430743808389536 75.9664024105922 H 0.0 **** 0.06
7628 H 104.16704368048777 17.175233066392025 75.94021998376971 H 0.0 **** 0.06
7629 H 105.78084233625304 16.83069904100836 75.27141045486695 H 0.0 **** 0.06
7630 H 104.68669812026207 17.94794499607019 74.42209265478522 H 0.0 **** 0.06
7631 C 47.80560866678687 48.26699977361386 87.6507285619505 C 0.0 **** -0.24
7632 H 48.21248512325079 49.15423500992381 87.16649426829582 H 0.0 **** 0.06
7633 H 47.81589319416722 47.432094529511915 86.94965567306411 H 0.0 **** 0.06
7634 H 46.78134379629924 48.46340436645849 87.96783962322098 H 0.0 **** 0.06
7635 H 48.413605788782775 48.01788669683353 88.52176357192036 H 0.0 **** 0.06
7636 C 23.03656313785882 2.1665923337223774 18.429483053283462 C 0.0 **** -0.24
7637 H 22.75437962813197 1.5720791710702997 19.297930078365912 H 0.0 **** 0.06
7638 H 23.47344169874708 1.5177039972192574 17.671113283119567 H 0.0 **** 0.06
7639 H 23.76633352654642 2.9199505317802164 18.727159624636638 H 0.0 **** 0.06
7640 H 22.15260589319169 2.6579925269843727 18.023432403911105 H 0.0 **** 0.06
7641 C 66.55959781452162 83.41007415564425 14.026129157909509 C 0.0 **** -0.24
7642 H 65.9446594223428 82.52434266086115 13.869135004967688 H 0.0 **** 0.06
7643 H 66.22851756978716 83.92748635732701 14.927079342751881 H 0.0 **** 0.06
7644 H 66.46380147334446 84.07604164747015 13.168547634294384 H 0.0 **** 0.06
7645 H 67.6027404886724 83.11276231274307 14.139402257757695 H 0.0 **** 0.06
7646 C 19.248238807432575 63.0956940467014 93.72140617454242 C 0.0 **** -0.24
7647 H 19.80231490862383 62.15903138730073 93.66805449665844 H 0.0 **** 0.06
7648 H 19.927512867314306 63.90469829328305 93.99305053953579 H 0.0 **** 0.06
7649 H 18.464068161337227 63.01171868337053 94.47415863509775 H 0.0 **** 0.06
7650 H 18.799733027889655 63.307928052486204 92.7514500158792 H 0.0 **** 0.06
7651 C 6.420845384698964 73.71644481371646 12.82880652990097 C 0.0 **** -0.24
7652 H 7.074471977858366 74.17472282042019 12.086021707247339 H 0.0 **** 0.06
7653 H 6.350364006295351 72.64597573420207 12.639085747121332 H 0.0 **** 0.06
7654 H 5.429474581657843 74.16395792874829 12.76443565342522 H 0.0 **** 0.06
7655 H 6.8304936195485055 73.88429173021501 13.824716380539659 H 0.0 **** 0.06
7656 C 76.82822830446068 57.139650815455994 93.88350093683812 C 0.0 **** -0.24
7657 H 76.22696578990775 57.777875226611535 94.5315107572211 H 0.0 **** 0.06
7658 H 77.77205273182534 56.90694752529395 94.37805973282622 H 0.0 **** 0.06
7659 H 77.02782867347543 57.658710518791885 92.94598644166126 H 0.0 **** 0.06
7660 H 76.28667883961111 56.216298153613906 93.67990155151324 H 0.0 **** 0.06
7661 C 66.83090455208782 16.165637950440328 22.69275839251486 C 0.0 **** -0.24
7662 H 67.36174188629838 16.883819042198184 22.06795174677572 H 0.0 **** 0.06
7663 H 65.9620935204361 16.64862539895165 23.142102705279285 H 0.0 **** 0.06
7664 H 67.4957236378234 15.807344047860283 23.479011399260315 H 0.0 **** 0.06
7665 H 66.50352032952503 15.324883537076744 22.081504537698976 H 0.0 **** 0.06
7666 C 7.574729009072499 99.98091135524119 18.500823038494588 C 0.0 **** -0.24
7667 H 8.609787631183096 99.83552987139399 18.19138550641547 H 0.0 **** 0.06
7668 H 7.06487854486808 99.01742678072786 18.526721373788675 H 0.0 **** 0.06
7669 H 7.072934068742995 100.63827175719243 17.790159343958607 H 0.0 **** 0.06
7670 H 7.5511124883109915 100.43165370748393 19.492707242503172 H 0.0 **** 0.06
7671 C 14.088404785667706 85.36686991790421 77.16645397159408 C 0.0 **** -0.24
7672 H 14.224363035873864 84.45919601470355 76.57680387509032 H 0.0 **** 0.06
7673 H 14.818730642952374 86.11348900615774 76.85569401022389 H 0.0 **** 0.06
7674 H 14.228468739443201 85.1374008787175 78.2226313911323 H 0.0 **** 0.06
7675 H 13.081133175918183 85.75360346019352 77.00901884999888 H 0.0 **** 0.06
7676 C 82.20381364403082 106.06294719315898 97.54867800089136 C 0.0 **** -0.24
7677 H 82.31002433079716 106.09674922463068 98.63244798031337 H 0.0 **** 0.06
7678 H 82.85932182514381 105.29215866498862 97.14345735441607 H 0.0 **** 0.06
7679 H 82.47555992004312 107.03036193719691 97.12684111005026 H 0.0 **** 0.06
7680 H 81.1694630437241 105.83216931538672 97.29227178018513 H 0.0 **** 0.06
7681 C 14.996258725993165 36.46459753065338 81.75439281172781 C 0.0 **** -0.24
7682 H 15.541253086592903 35.52290111902863 81.81808513233204 H 0.0 **** 0.06
7683 H 14.009002327188131 36.28464563811292 81.32857848688784 H 0.0 **** 0.06
7684 H 15.54580472930051 37.159503325494285 81.12052707804034 H 0.0 **** 0.06
7685 H 14.889567510149512 36.889658639956224 82.75279342277568 H 0.0 **** 0.06
7686 C 69.67801082751765 0.33060609232151705 28.978391786814313 C 0.0 **** -0.24
7687 H 69.19770515189342 -0.5723948810534694 29.355984734233544 H 0.0 **** 0.06
7688 H 69.51574043354276 0.4049553068076932 27.902261541765938 H 0.0 **** 0.06
7689 H 70.74766402019628 0.2851104730935816 29.183135298002384 H 0.0 **** 0.06
7690 H 69.25034786130624 1.2025960706235566 29.472134152411485 H 0.0 **** 0.06
7691 C 80.81785615101367 96.05714325239089 18.17645393273356 C 0.0 **** -0.24
7692 H 80.3195170479793 95.60604935257793 17.31803901738641 H 0.0 **** 0.06
7693 H 80.30280644333794 95.76318212317445 19.091535570983485 H 0.0 **** 0.06
7694 H 80.79612304473392 97.14271771294062 18.079415374153985 H 0.0 **** 0.06
7695 H 81.85169400821434 95.71686476443358 18.216284262405086 H 0.0 **** 0.06
7696 C 0.1809616817389812 15.685723590884493 20.48239962457663 C 0.0 **** -0.24
7697 H 0.9583500645614444 16.113090837121007 19.849175146777498 H 0.0 **** 0.06
7698 H -0.7817519848598962 16.12883030138221 20.22488921775792 H 0.0 **** 0.06
7699 H 0.4087726449433302 15.89486778268099 21.527796964065743 H 0.0 **** 0.06
7700 H 0.13847489701991123 14.608031555150262 20.32887309158383 H 0.0 **** 0.06
7701 C 9.293572931558202 0.20385846328494317 44.81834669561425 C 0.0 **** -0.24
7702 H 9.872652359049539 1.1229287316671464 44.902325969366245 H 0.0 **** 0.06
7703 H 8.345512843922833 0.4151276884725714 44.323398105435615 H 0.0 **** 0.06
7704 H 9.101176083695151 -0.19720179880207578 45.81373950884603 H 0.0 **** 0.06
7705 H 9.85367486585264 -0.5271552951417955 44.2345269853804 H 0.0 **** 0.06
7706 C 15.880950595871639 31.652188880406243 28.645059434493916 C 0.0 **** -0.24
7707 H 16.762864262004257 31.444911939337885 28.040324628244704 H 0.0 **** 0.06
7708 H 15.409016455153491 32.57081852230732 28.29597137713307 H 0.0 **** 0.06
7709 H 16.174626872599887 31.766684251667726 29.68868234541003 H 0.0 **** 0.06
7710 H 15.176229823131322 30.824381263955416 28.55542141737223 H 0.0 **** 0.06
7711 C 75.15545465991724 88.5289952668789 17.835484114291532 C 0.0 **** -0.24
7712 H 75.99483766112665 87.8468088433001 17.703410138706474 H 0.0 **** 0.06
7713 H 74.23696488284675 87.95531701949062 17.958900072236816 H 0.0 **** 0.06
7714 H 75.06807525095805 89.17092354603085 16.957882431879412 H 0.0 **** 0.06
7715 H 75.32229510283553 89.14364617044282 18.72020624733527 H 0.0 **** 0.06
7716 C 99.19119301039888 29.12769735088159 47.175599328038686 C 0.0 **** -0.24
7717 H 99.15840110318595 29.133637899266432 48.26478162542912 H 0.0 **** 0.06
7718 H 99.10933526748079 30.149323598936917 46.80384288831141 H 0.0 **** 0.06
7719 H 98.3612753944958 28.533699932427794 46.79078301136144 H 0.0 **** 0.06
7720 H 100.13342776908183 28.693412825021596 46.842770129898156 H 0.0 **** 0.06
7721 C 70.53463513209886 42.221398004779445 0.5936278108048896 C 0.0 **** -0.24
7722 H 70.17024945507833 41.70044496868249 -0.29122849136996365 H 0.0 **** 0.06
7723 H 71.62256765527415 42.15808549948002 0.6304530538393465 H 0.0 **** 0.06
7724 H 70.11272347481669 41.75910899693562 1.486071723531495 H 0.0 **** 0.06
7725 H 70.23299994322633 43.267952554019814 0.549214957218453 H 0.0 **** 0.06
7726 C 72.26411538008819 15.48938954180312 39.7137580376513 C 0.0 **** -0.24
7727 H 71.2870010379128 15.01225807321066 39.78532482353435 H 0.0 **** 0.06
7728 H 72.98266489986887 14.784692705589066 39.29435644437581 H 0.0 **** 0.06
7729 H 72.59254253788214 15.796149667533598 40.70632112914137 H 0.0 **** 0.06
7730 H 72.19356351932365 16.365218831909374 39.068057458913756 H 0.0 **** 0.06
7731 C 77.72048496788219 37.18299363905351 44.24049708371532 C 0.0 **** -0.24
7732 H 76.68025639304548 36.922405089003135 44.050184868208554 H 0.0 **** 0.06
7733 H 78.18740326157916 37.5122121897987 43.3119378858493 H 0.0 **** 0.06
7734 H 78.24967080507247 36.31080992484527 44.62397799812039 H 0.0 **** 0.06
7735 H 77.76559576192267 37.987543600064726 44.97487035971601 H 0.0 **** 0.06
7736 C 16.434144831104426 32.320364021457806 90.70573111896813 C 0.0 **** -0.24
7737 H 15.91743364103531 31.954906528191543 91.59311044532139 H 0.0 **** 0.06
7738 H 17.177124331068445 33.06199672939809 90.99814703975416 H 0.0 **** 0.06
7739 H 15.712347859386139 32.77562504920212 90.02715521026043 H 0.0 **** 0.06
7740 H 16.92853044326532 31.487312442336105 90.20595552604483 H 0.0 **** 0.06
7741 C 63.68336119331889 51.23807376600462 34.93771822325188 C 0.0 **** -0.24
7742 H 63.50252509573204 52.16612356995353 34.395093501112996 H 0.0 **** 0.06
7743 H 63.85520838792729 51.461109715118255 35.991862105546915 H 0.0 **** 0.06
7744 H 64.56086652681847 50.74022972750336 34.52425668565283 H 0.0 **** 0.06
7745 H 62.81525547874264 50.585397815410516 34.8415344757541 H 0.0 **** 0.06
7746 C 41.084143161690236 97.2686491854827 69.31104204050519 C 0.0 **** -0.24
7747 H 40.79898391907989 96.31543576422894 69.75741871658909 H 0.0 **** 0.06
7748 H 42.123974907327806 97.22239107229512 68.98776688599992 H 0.0 **** 0.06
7749 H 40.96639348851801 98.06358156659257 70.04633936462722 H 0.0 **** 0.06
7750 H 40.4450025140211 97.47149169612672 68.45154633466393 H 0.0 **** 0.06
7751 C 89.33915410068235 59.59410402028998 54.888749171132474 C 0.0 **** -0.24
7752 H 90.30627488448162 59.14030871414661 54.67198449861479 H 0.0 **** 0.06
7753 H 88.61063017892977 58.811060013253865 55.10114203306142 H 0.0 **** 0.06
7754 H 89.00981199779955 60.17482632793368 54.0276289426572 H 0.0 **** 0.06
7755 H 89.43167434537293 60.24821061657519 55.755140089691395 H 0.0 **** 0.06
7756 C 82.34789449492496 66.90650626287987 9.88602333120938 C 0.0 **** -0.24
7757 H 81.95061596142723 67.73041640749342 10.480523658505351 H 0.0 **** 0.06
7758 H 82.94550073688367 67.30578185389024 9.06678864522705 H 0.0 **** 0.06
7759 H 81.5235711501559 66.31935644402549 9.483336426960708 H 0.0 **** 0.06
7760 H 82.9724740580227 66.2730880588233 10.51673206102971 H 0.0 **** 0.06
7761 C 39.26838747020609 101.99865028189343 53.960714033294 C 0.0 **** -0.24
7762 H 40.20140514478035 101.75795334638374 53.451689783792844 H 0.0 **** 0.06
7763 H 39.12138301653383 101.31219795317155 54.79482650761715 H 0.0 **** 0.06
7764 H 38.43743541151468 101.90419235549454 53.26160596867469 H 0.0 **** 0.06
7765 H 39.31307821060709 103.02107640536592 54.3352514083405 H 0.0 **** 0.06
7766 C 34.38015330598725 40.86185882638412 8.657151639366306 C 0.0 **** -0.24
7767 H 33.653436325828054 41.49269720064788 8.144436199110398 H 0.0 **** 0.06
7768 H 35.37406763905784 41.29617662304467 8.553870401450249 H 0.0 **** 0.06
7769 H 34.37073476986733 39.86448214260756 8.214889435511697 H 0.0 **** 0.06
7770 H 34.11959963212454 40.793199845818464 9.713059499438017 H 0.0 **** 0.06
7771 C 55.45383377517899 70.06557032242671 65.49767976921973 C 0.0 **** -0.24
7772 H 55.273627370154436 69.03333281881982 65.79936857668207 H 0.0 **** 0.06
7773 H 54.64654508893194 70.69774166571426 65.86809183456103 H 0.0 **** 0.06
7774 H 55.49325720350137 70.124534100956 64.41069462547847 H 0.0 **** 0.06
7775 H 56.401931702333954 70.40490263801524 65.91498614466903 H 0.0 **** 0.06
7776 C 12.523064173375445 59.99059457976884 45.855467001934215 C 0.0 **** -0.24
7777 H 12.075312928966781 60.08615796229611 44.86658321564232 H 0.0 **** 0.06
7778 H 12.249816844419172 59.027135376780336 46.28647279705368 H 0.0 **** 0.06
7779 H 12.158992685160115 60.79341371571354 46.49800741125236 H 0.0 **** 0.06
7780 H 13.607603078915645 60.05731732678424 45.770896723108585 H 0.0 **** 0.06
7781 C 92.93391270850157 4.394749458593424 103.81287843652999 C 0.0 **** -0.24
7782 H 92.8524764428193 4.672187886209599 102.76294907608388 H 0.0 **** 0.06
7783 H 92.10992778610472 4.839807868305286 104.37121578755848 H 0.0 **** 0.06
7784 H 93.88128070567035 4.7584605248434855 104.21245059213193 H 0.0 **** 0.06
7785 H 92.89319471175469 3.3091442787398933 103.90635668964931 H 0.0 **** 0.06
7786 C 98.17622677898851 65.45434899181278 87.56082220502987 C 0.0 **** -0.24
7787 H 97.83527449683442 64.43305148890033 87.39214902171095 H 0.0 **** 0.06
7788 H 98.09219198112805 65.69509914401458 88.62146838131736 H 0.0 **** 0.06
7789 H 97.55941845488616 66.14236181320072 86.98169993246616 H 0.0 **** 0.06
7790 H 99.21639148590225 65.54742031610934 87.24820130179542 H 0.0 **** 0.06
7791 C 2.922797741891742 93.45588089247838 46.684664326921265 C 0.0 **** -0.24
7792 H 3.0374079588534073 94.43935134446599 46.23066542814837 H 0.0 **** 0.06
7793 H 2.1696244513694296 93.50394710348758 47.47116311506511 H 0.0 **** 0.06
7794 H 3.87390324717785 93.13945646642412 47.11156309181772 H 0.0 **** 0.06
7795 H 2.609885424106352 92.73970566527703 45.92440932686603 H 0.0 **** 0.06
7796 C 56.640627216635714 106.1792125958137 3.728363662184724 C 0.0 **** -0.24
7797 H 56.43775467982889 105.9773105421024 2.677191485180071 H 0.0 **** 0.06
7798 H 55.745376386370054 105.97305229958502 4.316927758508618 H 0.0 **** 0.06
7799 H 56.922342043670696 107.22472221026204 3.8496363558369042 H 0.0 **** 0.06
7800 H 57.45515168676571 105.5414164122261 4.070272390517954 H 0.0 **** 0.06
7801 C 82.59277535445706 13.459139737816372 25.60213467678841 C 0.0 **** -0.24
7802 H 83.665205278249 13.605887789642907 25.47355871347804 H 0.0 **** 0.06
7803 H 82.40535671710087 12.970331011270105 26.559072014411925 H 0.0 **** 0.06
7804 H 82.21186159383666 12.835941133816448 24.79346670871709 H 0.0 **** 0.06
7805 H 82.09014877890041 14.42696229515667 25.58394673212959 H 0.0 **** 0.06
7806 C 24.450837708329857 26.474824759629428 17.352694109602787 C 0.0 **** -0.24
7807 H 24.02108590102364 25.774564817536316 16.636927338035544 H 0.0 **** 0.06
7808 H 24.931423103138002 25.92055094535641 18.158997981493762 H 0.0 **** 0.06
7809 H 23.660577066325743 27.10360017486107 17.764484546397938 H 0.0 **** 0.06
7810 H 25.188980846139486 27.10044780732443 16.85152129832 H 0.0 **** 0.06
7811 C 68.25181583639356 92.78078104508573 8.195797966393716 C 0.0 **** -0.24
7812 H 69.19981725557255 93.31141073048914 8.290825377346415 H 0.0 **** 0.06
7813 H 68.35065241277216 91.78251394995411 8.623534916790017 H 0.0 **** 0.06
7814 H 67.98557072586433 92.69897057255848 7.141708159127104 H 0.0 **** 0.06
7815 H 67.47410621124686 93.3285221270228 8.72579140489729 H 0.0 **** 0.06
7816 C 21.29739681109168 90.11964609238274 94.57600601349668 C 0.0 **** -0.24
7817 H 22.311937217363337 90.41568801579805 94.30723157242677 H 0.0 **** 0.06
7818 H 21.18702059828951 89.043654217436 94.44625924911061 H 0.0 **** 0.06
7819 H 20.586325837973323 90.63903369909912 93.93339080719527 H 0.0 **** 0.06
7820 H 21.106235272599154 90.3833486580576 95.6165034707782 H 0.0 **** 0.06
7821 C 106.15617188094542 17.173185605781626 106.70487834209499 C 0.0 **** -0.24
7822 H 107.22390464515509 17.38874797323473 106.66380131585244 H 0.0 **** 0.06
7823 H 105.61125286232608 17.92841330310941 106.1384791047002 H 0.0 **** 0.06
7824 H 105.82359966170597 17.186487293915874 107.74286172125566 H 0.0 **** 0.06
7825 H 105.96769894276338 16.18954307939987 106.27600541373917 H 0.0 **** 0.06
7826 C 29.840000156131737 93.88027797248535 15.858085417731346 C 0.0 **** -0.24
7827 H 30.069030243052822 92.81669474355387 15.800296222431655 H 0.0 **** 0.06
7828 H 29.345099646912757 94.19629138248806 14.938996312683003 H 0.0 **** 0.06
7829 H 30.763798569456213 94.44426785949636 15.986165847532504 H 0.0 **** 0.06
7830 H 29.1817973033516 94.06488081281498 16.70782041233275 H 0.0 **** 0.06
7831 C 23.397119966209914 16.100945966720715 20.203997491924053 C 0.0 **** -0.24
7832 H 22.924548241484274 15.377368566767473 20.86736568928362 H 0.0 **** 0.06
7833 H 24.2294817259708 15.627097981756833 19.683798790505552 H 0.0 **** 0.06
7834 H 23.765859545109805 16.94390761183658 20.788838083549283 H 0.0 **** 0.06
7835 H 22.66798874231958 16.45634459783831 19.4751132557519 H 0.0 **** 0.06
7836 C 34.140721321608346 105.01270131429601 92.13349162245237 C 0.0 **** -0.24
7837 H 33.26520960532511 104.65879823169503 91.5881086367652 H 0.0 **** 0.06
7838 H 34.41543164442452 104.2811627542625 92.89316672630366 H 0.0 **** 0.06
7839 H 33.9109156010073 105.96468957710157 92.61131413499187 H 0.0 **** 0.06
7840 H 34.97113222170064 105.14603242248441 91.43915285597025 H 0.0 **** 0.06
7841 C 20.789646012402585 50.76841559451486 13.600396749238087 C 0.0 **** -0.24
7842 H 21.276035352067964 50.42522912905048 12.687706148287901 H 0.0 **** 0.06
7843 H 21.055464312332987 50.10574603712445 14.424113572837598 H 0.0 **** 0.06
7844 H 19.7086821198902 50.76063749678809 13.46114064032696 H 0.0 **** 0.06
7845 H 21.118738058475998 51.78181888126721 13.827713396896513 H 0.0 **** 0.06
7846 C 89.56207924459125 1.1038398667198521 58.14582514928 C 0.0 **** -0.24
7847 H 88.98995502891626 1.572331609566021 58.94638061734193 H 0.0 **** 0.06
7848 H 89.54185743984998 0.021083357618380205 58.27142032531265 H 0.0 **** 0.06
7849 H 90.59367248925842 1.4542327553687358 58.18358652440034 H 0.0 **** 0.06
7850 H 89.12398715518724 1.3671402681192149 57.183996241852526 H 0.0 **** 0.06
7851 C 46.94227558931447 56.989366790755895 94.33298228051865 C 0.0 **** -0.24
7852 H 46.314613851815935 57.57344486762909 95.00574987276408 H 0.0 **** 0.06
7853 H 47.26556088383338 56.07869383861297 94.83713512989306 H 0.0 **** 0.06
7854 H 47.81445567546033 57.57692839470233 94.04751961301002 H 0.0 **** 0.06
7855 H 46.372472858616476 56.7282930348454 93.44052830138284 H 0.0 **** 0.06
7856 C 31.30990617439278 80.58064497772648 97.52313724812217 C 0.0 **** -0.24
7857 H 31.76972480822917 81.01435124629211 96.63612071932663 H 0.0 **** 0.06
7858 H 30.464601009908222 79.95855567180345 97.22648787990673 H 0.0 **** 0.06
7859 H 30.96165357873201 81.37796148475982 98.17919760551943 H 0.0 **** 0.06
7860 H 32.04251161644976 79.97007164501628 98.05058218438221 H 0.0 **** 0.06
7861 C 71.1272757021145 29.79081062151579 59.16115286725997 C 0.0 **** -0.24
7862 H 71.03704253317017 28.736733498169315 58.89675137750797 H 0.0 **** 0.06
7863 H 72.18131665691732 30.06130053962977 59.22469483584686 H 0.0 **** 0.06
7864 H 70.64745852854588 29.965096538975615 60.12450152220043 H 0.0 **** 0.06
7865 H 70.64089953143855 30.39828591971542 58.39767614361736 H 0.0 **** 0.06
7866 C 21.897609449260813 59.73551850889663 12.187242105552855 C 0.0 **** -0.24
7867 H 22.786201204425367 59.73423395668911 12.818477994657329 H 0.0 **** 0.06
7868 H 21.03720539312519 60.06096990780617 12.773078272894068 H 0.0 **** 0.06
7869 H 21.71983240507302 58.72921225222072 11.808206830918607 H 0.0 **** 0.06
7870 H 22.047588186293808 60.41830181509886 11.35040276422454 H 0.0 **** 0.06
7871 C 100.13072814460111 100.31650905920358 80.88240453595964 C 0.0 **** -0.24
7872 H 100.58304526074085 101.03501408580685 81.56656350711741 H 0.0 **** 0.06
7873 H 100.75072101405067 100.22391721729801 79.99102118773591 H 0.0 **** 0.06
7874 H 99.13568409677941 100.66239576546593 80.5990345901064 H 0.0 **** 0.06
7875 H 100.05171312393622 99.34725448343966 81.37420823313785 H 0.0 **** 0.06
7876 C 25.768527675582448 69.36183560002996 90.68731608932902 C 0.0 **** -0.24
7877 H 26.614573592467366 69.8230671394578 91.19644815893949 H 0.0 **** 0.06
7878 H 26.122595039655465 68.82768440672166 89.80516953307773 H 0.0 **** 0.06
7879 H 25.061581239673217 70.13491367429458 90.38519399040047 H 0.0 **** 0.06
7880 H 25.27503284572134 68.6630450405465 91.36259921709322 H 0.0 **** 0.06
7881 C 97.5936859978467 70.89050166375453 100.3036829506998 C 0.0 **** -0.24
7882 H 98.03878736493209 69.90333186334205 100.42899167160294 H 0.0 **** 0.06
7883 H 96.58567349823659 70.88955721214516 100.7195214503314 H 0.0 **** 0.06
7884 H 97.54984931341227 71.13594134517022 99.24252960643571 H 0.0 **** 0.06
7885 H 98.20152445808753 71.63111663584233 100.82293486791616 H 0.0 **** 0.06
7886 C 75.74751168324164 80.88804835184843 43.37622367037042 C 0.0 **** -0.24
7887 H 74.86674431512603 81.14614801317572 43.96555565485388 H 0.0 **** 0.06
7888 H 75.82648319170067 81.56627854216941 42.52565439591252 H 0.0 **** 0.06
7889 H 75.655282446444 79.8634574443845 43.01735614558295 H 0.0 **** 0.06
7890 H 76.63868489162718 80.97754751464373 43.997483618058986 H 0.0 **** 0.06
7891 C 94.42203123332976 67.10045104094651 68.37304744379134 C 0.0 **** -0.24
7892 H 95.1251602413349 66.43068021477353 67.87692407938368 H 0.0 **** 0.06
7893 H 93.41880426293491 66.92633799974769 67.98535174443816 H 0.0 **** 0.06
7894 H 94.71139128949042 68.13401768050076 68.18480973379258 H 0.0 **** 0.06
7895 H 94.4355540719838 66.91012680874972 69.44645815289618 H 0.0 **** 0.06
7896 C 72.15294561021737 20.054298071887104 8.755947172593437 C 0.0 **** -0.24
7897 H 72.54828949565983 21.06946452750131 8.780826042802005 H 0.0 **** 0.06
7898 H 71.50910872952528 19.936564177946664 7.8838115465410965 H 0.0 **** 0.06
7899 H 71.57689201056554 19.86595829133742 9.661504487023763 H 0.0 **** 0.06
7900 H 72.97812583033026 19.34406922751934 8.695827793059834 H 0.0 **** 0.06
7901 C 67.62568738736624 60.960978124105566 44.93474392198033 C 0.0 **** -0.24
7902 H 68.01159244149957 61.596912708174614 45.73142465989969 H 0.0 **** 0.06
7903 H 68.39977600855937 60.811316508221466 44.18247276881431 H 0.0 **** 0.06
7904 H 66.75946334973932 61.43721557907031 44.476024524243655 H 0.0 **** 0.06
7905 H 67.33281610364836 59.99632233326682 45.350948668217484 H 0.0 **** 0.06
7906 C 23.460782002847324 85.64101627094388 98.91664209983767 C 0.0 **** -0.24
7907 H 22.99368640437069 85.03559223666383 99.69307762406864 H 0.0 **** 0.06
7908 H 24.381084708403094 86.079758594991 99.30409129395306 H 0.0 **** 0.06
7909 H 22.778592617138067 86.43515231555341 98.61500615695446 H 0.0 **** 0.06
7910 H 23.69186297120428 85.01398133851558 98.05558491143621 H 0.0 **** 0.06
7911 C 77.73107827282556 29.527810314539636 63.23809013930712 C 0.0 **** -0.24
7912 H 78.2278743696352 28.658843953110306 63.66851872290991 H 0.0 **** 0.06
7913 H 78.09430871728838 30.43227884700022 63.725269767710586 H 0.0 **** 0.06
7914 H 76.65442890411792 29.441477836460308 63.38673258234289 H 0.0 **** 0.06
7915 H 77.94646793198437 29.57794105883974 62.170110282656395 H 0.0 **** 0.06
7916 C 25.879950892579252 66.84239889429679 54.058777557227735 C 0.0 **** -0.24
7917 H 25.13781177852364 67.53014900920934 54.46393063160521 H 0.0 **** 0.06
7918 H 26.676570725398044 67.40959210207703 53.576943113189735 H 0.0 **** 0.06
7919 H 25.40669720916627 66.18664261396364 53.32773079156586 H 0.0 **** 0.06
7920 H 26.2981951041662 66.24278219822727 54.86774501090459 H 0.0 **** 0.06
7921 C 68.48851173394856 10.414804039227931 74.86025377944102 C 0.0 **** -0.24
7922 H 67.93917300540792 9.568209163194169 75.27181152025472 H 0.0 **** 0.06
7923 H 68.47763493779314 11.236911554963953 75.57594619898308 H 0.0 **** 0.06
7924 H 68.01890584527042 10.735555019479762 73.92991574205539 H 0.0 **** 0.06
7925 H 69.51896399092074 10.118059495517869 74.66273272729288 H 0.0 **** 0.06
7926 C 30.524617168549184 41.422917457066745 50.38068294092284 C 0.0 **** -0.24
7927 H 29.444400692655577 41.44532054128638 50.523753420573144 H 0.0 **** 0.06
7928 H 30.820203086524117 42.2331012534748 49.71411569945485 H 0.0 **** 0.06
7929 H 30.813390250123092 40.46727782310107 49.94365698882882 H 0.0 **** 0.06
7930 H 31.02073892907015 41.54596745245175 51.344194059208064 H 0.0 **** 0.06
7931 C 94.56962606789072 21.759244311849727 86.06151750659592 C 0.0 **** -0.24
7932 H 94.18842278140374 22.388326443946312 85.25629735390888 H 0.0 **** 0.06
7933 H 93.73709271108375 21.24786976571926 86.54627317677453 H 0.0 **** 0.06
7934 H 95.09079068821637 22.378286511386648 86.79082734285325 H 0.0 **** 0.06
7935 H 95.25967354693061 21.02262279319487 85.65077197231656 H 0.0 **** 0.06
7936 C 73.50608457952809 77.35694186523489 104.57741660189028 C 0.0 **** -0.24
7937 H 73.96666186330667 77.84658607266178 105.43506734252844 H 0.0 **** 0.06
7938 H 74.28064659625134 77.0419313318902 103.87944620690706 H 0.0 **** 0.06
7939 H 72.83097121411953 78.05434530757665 104.08145381000763 H 0.0 **** 0.06
7940 H 72.94413159364758 76.48588284074549 104.91577996759341 H 0.0 **** 0.06
7941 C 76.08907573904199 7.18172213388074 26.150924049995297 C 0.0 **** -0.24
7942 H 75.55308400883715 7.173873539936295 25.20158480893727 H 0.0 **** 0.06
7943 H 75.42197195724168 6.851484216850196 26.947042232105616 H 0.0 **** 0.06
7944 H 76.43514355983606 8.193034941770676 26.363666053907195 H 0.0 **** 0.06
7945 H 76.9447783004997 6.509110485573203 26.090472311622108 H 0.0 **** 0.06
7946 C 50.71823410931907 76.73139598631765 51.939108239621646 C 0.0 **** -0.24
7947 H 51.43432526786854 76.76737161021606 52.75995713184602 H 0.0 **** 0.06
7948 H 49.705279287801076 76.78989300316499 52.33838430142515 H 0.0 **** 0.06
7949 H 50.83970053512381 75.79571813575414 51.39239659492807 H 0.0 **** 0.06
7950 H 50.89429272444412 77.57075357616564 51.266766895715534 H 0.0 **** 0.06
7951 C 14.482275179959345 10.762651912390169 64.20378383868521 C 0.0 **** -0.24
7952 H 15.562145734028263 10.61799030285556 64.24228490520846 H 0.0 **** 0.06
7953 H 13.989417748033276 9.79310597834835 64.13643466324103 H 0.0 **** 0.06
7954 H 14.227779601463311 11.362358497491101 63.33026527015423 H 0.0 **** 0.06
7955 H 14.151957218280074 11.277535022187081 65.10602390739106 H 0.0 **** 0.06
7956 C 2.8989321432048722 80.05803851491213 107.0956661866071 C 0.0 **** -0.24
7957 H 2.4241318636543303 79.59391302737858 106.23092636586082 H 0.0 **** 0.06
7958 H 3.5235036619221987 80.8886052946002 106.76623339214785 H 0.0 **** 0.06
7959 H 3.5166198764891936 79.32029702244526 107.60928484951324 H 0.0 **** 0.06
7960 H 2.1321563793674976 80.42646155066831 107.77734067921685 H 0.0 **** 0.06
7961 C 72.89356844377596 65.15787196101374 2.2471393853988673 C 0.0 **** -0.24
7962 H 73.16619950534461 64.15537688663755 1.9186647338085976 H 0.0 **** 0.06
7963 H 72.44455906271936 65.70248469754904 1.4157866876300176 H 0.0 **** 0.06
7964 H 73.78559369011535 65.68375251554568 2.586892664427566 H 0.0 **** 0.06
7965 H 72.17730035999651 65.09024211771339 3.06534834197727 H 0.0 **** 0.06
7966 C 77.58030303376341 25.96045014993175 42.46747686540914 C 0.0 **** -0.24
7967 H 77.78176454399193 26.407833708224228 41.49423130969623 H 0.0 **** 0.06
7968 H 78.3457224012335 25.215905654709843 42.6898357316002 H 0.0 **** 0.06
7969 H 76.60157200526686 25.482907795017745 42.451744949280794 H 0.0 **** 0.06
7970 H 77.59439812493417 26.736084734470587 43.233790163141805 H 0.0 **** 0.06
7971 C 9.331406537492342 83.76503016779667 45.49119936399461 C 0.0 **** -0.24
7972 H 9.40711417912513 84.64651090474374 46.128986817301524 H 0.0 **** 0.06
7973 H 9.35264864008792 82.8674107457713 46.109187108651014 H 0.0 **** 0.06
7974 H 10.17195073506025 83.74787507201764 44.79608861835575 H 0.0 **** 0.06
7975 H 8.397516244182441 83.8006978392096 44.932077418794364 H 0.0 **** 0.06
7976 C 26.32060801836965 1.9247303335036463 1.2732901935179175 C 0.0 **** -0.24
7977 H 25.939100885230364 2.9392289569136096 1.1572963890816732 H 0.0 **** 0.06
7978 H 27.050677032464367 1.7192669535020286 0.4903810390321537 H 0.0 **** 0.06
7979 H 25.4946283091446 1.216298958345476 1.195964222865812 H 0.0 **** 0.06
7980 H 26.795211035196143 1.8242668002268374 2.2492793085424934 H 0.0 **** 0.06
7981 C 10.521499110577498 102.80951470089758 85.20774646654141 C 0.0 **** -0.24
7982 H 9.731860172814846 102.0662872770414 85.315059190961 H 0.0 **** 0.06
7983 H 10.087108225771535 103.75725916175713 84.88879548544304 H 0.0 **** 0.06
7984 H 11.241125871172434 102.47004609863382 84.46311630564045 H 0.0 **** 0.06
7985 H 11.026128617118422 102.94546102559866 86.16499430671098 H 0.0 **** 0.06
7986 C 98.00920634270072 95.91569688644509 86.59396563647384 C 0.0 **** -0.24
7987 H 98.07282725637529 94.94640461460858 87.08717707176069 H 0.0 **** 0.06
7988 H 97.69896995172789 95.77685671912442 85.55720452485446 H 0.0 **** 0.06
7989 H 98.98450512164919 96.40086386269175 86.61908462997651 H 0.0 **** 0.06
7990 H 97.27907944347791 96.53866560894383 87.11041735702219 H 0.0 **** 0.06
7991 C 74.50953793629573 21.651748358644213 24.711289727903875 C 0.0 **** -0.24
7992 H 74.24680438067595 20.697415042497653 24.253734534093468 H 0.0 **** 0.06
7993 H 74.48445560200759 21.553068439717123 25.796825949066232 H 0.0 **** 0.06
7994 H 73.7951713782213 22.412888854536078 24.398631381483852 H 0.0 **** 0.06
7995 H 75.5109775814938 21.941656339288258 24.39520010619671 H 0.0 **** 0.06
7996 C 30.900681466319497 33.51596276234804 20.189737275603193 C 0.0 **** -0.24
7997 H 31.130182859609818 33.353249243703516 19.136364996710938 H 0.0 **** 0.06
7998 H 30.395965196519114 32.636164344445916 20.590701120658025 H 0.0 **** 0.06
7999 H 30.251062068082206 34.38514961108092 20.290213854669247 H 0.0 **** 0.06
8000 H 31.82594323549324 33.68623639199512 20.739796578587146 H 0.0 **** 0.06
8001 C 30.40034309861676 36.16774234393861 53.1149072375943 C 0.0 **** -0.24
8002 H 29.822106290971476 36.848581637582065 53.73972702510552 H 0.0 **** 0.06
8003 H 31.397461020910725 36.044923575798954 53.53953198611617 H 0.0 **** 0.06
8004 H 30.481690583303703 36.57839216415559 52.10907376918686 H 0.0 **** 0.06
8005 H 29.90160297805346 35.19962243773289 53.07437545557734 H 0.0 **** 0.06
8006 C 41.2826679456017 2.598246547420537 44.442422436643255 C 0.0 **** -0.24
8007 H 42.15787042830354 2.482031396851511 45.08243447269058 H 0.0 **** 0.06
8008 H 41.264543979027934 1.7979423498670544 43.70289326020054 H 0.0 **** 0.06
8009 H 41.330625328662876 3.5618310213469098 43.93561405329024 H 0.0 **** 0.06
8010 H 40.38022051696926 2.5519751195394154 45.05133069314138 H 0.0 **** 0.06
8011 C 6.217087527875549 37.27524846275543 33.22271771577843 C 0.0 **** -0.24
8012 H 5.665924763811063 37.61167839583828 32.3451966821071 H 0.0 **** 0.06
8013 H 6.603552851763936 38.13905362847157 33.76245731776897 H 0.0 **** 0.06
8014 H 7.046010074116452 36.641011781554965 32.90897906988834 H 0.0 **** 0.06
8015 H 5.551960468581342 36.70720392142829 33.87422839664363 H 0.0 **** 0.06
8016 C 90.29491189234885 68.48344310027193 5.847692533348663 C 0.0 **** -0.24
8017 H 89.52655194367294 69.23239135345506 6.039833668827342 H 0.0 **** 0.06
8018 H 91.10997148970834 68.93615896583202 5.283264598544548 H 0.0 **** 0.06
8019 H 89.86625153237053 67.6624828168529 5.27343284614966 H 0.0 **** 0.06
8020 H 90.67586872764404 68.1030407104434 6.795617969377204 H 0.0 **** 0.06
8021 C 16.043252089854406 75.38024001977897 94.1240101516386 C 0.0 **** -0.24
8022 H 15.152803614225647 75.98358383627354 93.9445930255466 H 0.0 **** 0.06
8023 H 16.92992350722899 75.94446230609347 93.83351444739722 H 0.0 **** 0.06
8024 H 15.986738166548221 74.46473176614936 93.53473386330822 H 0.0 **** 0.06
8025 H 16.103955400374616 75.12761286727337 95.18248798653377 H 0.0 **** 0.06
8026 C 81.93790933838852 64.59574793909454 69.2940916757672 C 0.0 **** -0.24
8027 H 81.76084195874071 65.20614881333697 68.4086095363133 H 0.0 **** 0.06
8028 H 81.82484488295103 63.54187992609789 69.0379581366113 H 0.0 **** 0.06
8029 H 81.21787876515506 64.86095413437496 70.06858530300615 H 0.0 **** 0.06
8030 H 82.94837243353126 64.77473956675476 69.66182669867192 H 0.0 **** 0.06
8031 C 19.64631977904658 75.9371681917976 71.52637042346757 C 0.0 **** -0.24
8032 H 20.550561170601753 76.07360179883428 70.93232485915257 H 0.0 **** 0.06
8033 H 19.19021161328132 74.97883203418361 71.27724821265227 H 0.0 **** 0.06
8034 H 18.94526460038817 76.74285373461157 71.30928718409265 H 0.0 **** 0.06
8035 H 19.902122853912573 75.95384444685527 72.58592240836649 H 0.0 **** 0.06
8036 C 67.56450599679442 63.06183187094217 3.8465182027585314 C 0.0 **** -0.24
8037 H 66.56861935080153 62.7988491753309 4.203013075755649 H 0.0 **** 0.06
8038 H 67.80504575266312 62.46318645334614 2.9672986337476033 H 0.0 **** 0.06
8039 H 68.29454196639256 62.86523080709674 4.631797910703554 H 0.0 **** 0.06
8040 H 67.58963528777284 64.11907858637665 3.5839204599983816 H 0.0 **** 0.06
8041 C 96.20349671096906 18.713113190191535 105.30961220465983 C 0.0 **** -0.24
8042 H 96.9935412987675 19.313626242417797 104.85922758121954 H 0.0 **** 0.06
8043 H 95.56630378061854 19.35121104182356 105.92097294534746 H 0.0 **** 0.06
8044 H 96.64716506473351 17.93639586868555 105.93275770711395 H 0.0 **** 0.06
8045 H 95.60660011947314 18.250137771840954 104.5233253841707 H 0.0 **** 0.06
8046 C 12.771155531507645 48.29485800129386 98.83412444118223 C 0.0 **** -0.24
8047 H 13.59891190076786 48.70939992707717 98.25788565643632 H 0.0 **** 0.06
8048 H 13.157862235784819 47.82986881404032 99.74078957996493 H 0.0 **** 0.06
8049 H 12.250878057496834 47.546758774160786 98.23449231526995 H 0.0 **** 0.06
8050 H 12.078694598123207 49.09321553384522 99.10050349608615 H 0.0 **** 0.06
8051 C 97.11628799805555 43.34339676646156 28.783702294280488 C 0.0 **** -0.24
8052 H 96.1753614001687 43.14231622851526 29.29620544281846 H 0.0 **** 0.06
8053 H 96.9616840887212 43.28680154542456 27.706438029359674 H 0.0 **** 0.06
8054 H 97.8590119162904 42.60507959014437 29.084900910910108 H 0.0 **** 0.06
8055 H 97.46800902940572 44.34080220491677 29.048616322685746 H 0.0 **** 0.06
8056 C 104.6598175180339 40.00489589824383 93.22405719602688 C 0.0 **** -0.24
8057 H 104.53453114409385 40.232579165010065 94.28258275437399 H 0.0 **** 0.06
8058 H 103.68312056544278 39.9824032087962 92.73997364933878 H 0.0 **** 0.06
8059 H 105.14171653971574 39.03373677544971 93.11650746323016 H 0.0 **** 0.06
8060 H 105.27891428618776 40.7711942297712 92.75854916807378 H 0.0 **** 0.06
8061 C 67.09200089087773 68.00236077377271 25.089288240723448 C 0.0 **** -0.24
8062 H 66.17880741331345 67.5999671777439 25.52722630945547 H 0.0 **** 0.06
8063 H 67.26446760849552 69.00900075981646 25.470869036017973 H 0.0 **** 0.06
8064 H 66.99057622516045 68.03644684491486 24.004738626588164 H 0.0 **** 0.06
8065 H 67.93453167205251 67.36333615544905 25.354933037981453 H 0.0 **** 0.06
8066 C 76.70206918248786 56.5710329713765 77.18393251224097 C 0.0 **** -0.24
8067 H 77.32074921065009 55.67621414241531 77.256836727407 H 0.0 **** 0.06
8068 H 75.79220741596404 56.338034405707894 76.62937772364165 H 0.0 **** 0.06
8069 H 77.25493773122244 57.352961579224846 76.66417517765973 H 0.0 **** 0.06
8070 H 76.4403584822985 56.91406287883354 78.18443121581436 H 0.0 **** 0.06
8071 C 66.69560129203316 72.3320858901738 49.79754328541625 C 0.0 **** -0.24
8072 H 66.35252929594088 72.18209387073514 48.774721880371175 H 0.0 **** 0.06
8073 H 67.56540423594788 71.70185235963825 49.98554405336699 H 0.0 **** 0.06
8074 H 65.89775555293667 72.06727412174376 50.49051410400867 H 0.0 **** 0.06
8075 H 66.96720428796175 73.37787025305863 49.938941853647094 H 0.0 **** 0.06
8076 C 26.518219960793203 31.5879919249233 44.18347969441283 C 0.0 **** -0.24
8077 H 27.432795058320607 31.23855309792029 43.70389589015676 H 0.0 **** 0.06
8078 H 26.76771491893544 32.3257425834893 44.9457538676076 H 0.0 **** 0.06
8079 H 26.007668765401974 30.74365334607438 44.648085559088834 H 0.0 **** 0.06
8080 H 25.866615011145228 32.04133675198915 43.436563929666065 H 0.0 **** 0.06
8081 C 46.79674639372132 73.38652109873392 80.03749822598749 C 0.0 **** -0.24
8082 H 47.80419005622929 73.26666636115311 79.63844454951507 H 0.0 **** 0.06
8083 H 46.790948374628556 73.12412746305387 81.09479506624157 H 0.0 **** 0.06
8084 H 46.11175340869846 72.73322605843578 79.4965306358915 H 0.0 **** 0.06
8085 H 46.479831418526885 74.42310733645711 79.91802174704569 H 0.0 **** 0.06
8086 C 63.23507231105009 28.113108191035053 28.24368288770475 C 0.0 **** -0.24
8087 H 63.77302837558375 27.762592003462828 27.36342705194582 H 0.0 **** 0.06
8088 H 63.88044914080183 28.035683388330654 29.11939112291367 H 0.0 **** 0.06
8089 H 62.34580639128802 27.50137699326754 28.392920064889353 H 0.0 **** 0.06
8090 H 62.94054590247987 29.152676038425398 28.09987539917921 H 0.0 **** 0.06
8091 C 24.31767046740697 45.13274495715456 69.0456244069074 C 0.0 **** -0.24
8092 H 23.840223059749803 46.10389700611944 69.17304238956359 H 0.0 **** 0.06
8093 H 25.357580723187283 45.194164338228575 69.36653409804978 H 0.0 **** 0.06
8094 H 24.276355428995316 44.84323357328077 67.995691112168 H 0.0 **** 0.06
8095 H 23.794490031567506 44.390201577346204 69.64800573213472 H 0.0 **** 0.06
8096 C 65.72766546271464 30.504316501564404 46.39118717590171 C 0.0 **** -0.24
8097 H 66.40208554018858 30.59353421387155 45.53860020670181 H 0.0 **** 0.06
8098 H 65.31051427631616 29.497656915141874 46.419631436167094 H 0.0 **** 0.06
8099 H 64.9207659522909 31.23005934590958 46.29252520462646 H 0.0 **** 0.06
8100 H 66.27923852604087 30.69554765023122 47.31154064026111 H 0.0 **** 0.06
8101 C 34.11651314205204 55.883705266793584 97.86944104790359 C 0.0 **** -0.24
8102 H 34.15584504505034 56.49121438505654 96.96523289448936 H 0.0 **** 0.06
8103 H 34.61979997369605 56.408732515714064 98.68108409902999 H 0.0 **** 0.06
8104 H 34.61371188625844 54.93069310284278 97.68760059610503 H 0.0 **** 0.06
8105 H 33.076303517943415 55.70457365813951 98.14073331561156 H 0.0 **** 0.06
8106 C 10.240926581770879 33.38299780992483 98.97104011720013 C 0.0 **** -0.24
8107 H 9.783687102282556 32.69743563229511 98.25741817508263 H 0.0 **** 0.06
8108 H 9.543858812230425 33.57608977274597 99.78704303962233 H 0.0 **** 0.06
8109 H 10.483775795302392 34.31976189978684 98.46975078709069 H 0.0 **** 0.06
8110 H 11.152533678506757 32.93743323608908 99.36934580835549 H 0.0 **** 0.06
8111 C 95.14606076046448 79.25340843669169 94.25706889623795 C 0.0 **** -0.24
8112 H 94.0644086790855 79.34104623570184 94.35713426558706 H 0.0 **** 0.06
8113 H 95.58585755640436 79.04468523461028 95.23307001191121 H 0.0 **** 0.06
8114 H 95.55187177409694 80.18755723217599 93.8680866596511 H 0.0 **** 0.06
8115 H 95.38299010405171 78.44081052102776 93.5699896864658 H 0.0 **** 0.06
8116 C 46.55923671794622 65.92208616409896 83.4918729828748 C 0.0 **** -0.24
8117 H 46.27182577067367 64.87609052140064 83.37414922244572 H 0.0 **** 0.06
8118 H 47.14376294579057 66.23640643664234 82.62709695877533 H 0.0 **** 0.06
8119 H 47.15670246166235 66.034740526886 84.39651677126366 H 0.0 **** 0.06
8120 H 45.663303033397085 66.53767045768825 83.56912901793734 H 0.0 **** 0.06
8121 C 87.0696560313894 49.64207332620077 39.725943807553136 C 0.0 **** -0.24
8122 H 86.52191766848333 50.44277091166663 40.22304216408142 H 0.0 **** 0.06
8123 H 86.7619049594148 49.584455098101785 38.68233033440117 H 0.0 **** 0.06
8124 H 86.85553950853111 48.6944876709955 40.22079658654741 H 0.0 **** 0.06
8125 H 88.13957247238372 49.84550779639517 39.7795439315197 H 0.0 **** 0.06
8126 C 55.03341280059528 11.708644299869917 27.638155083038185 C 0.0 **** -0.24
8127 H 54.59366646842945 11.797362021790718 28.63220945569452 H 0.0 **** 0.06
8128 H 56.120299181730516 11.710397550291248 27.71958370898659 H 0.0 **** 0.06
8129 H 54.712860854610284 12.549945710702843 27.023276138002842 H 0.0 **** 0.06
8130 H 54.70403180342978 10.776217487207788 27.17921595309079 H 0.0 **** 0.06
8131 C 101.34622288677488 102.69946742833682 34.062090319834596 C 0.0 **** -0.24
8132 H 102.28393915964763 103.00087633571142 34.52828828385395 H 0.0 **** 0.06
8133 H 100.59715736338525 102.52066237916331 34.83464865864673 H 0.0 **** 0.06
8134 H 101.50263302540537 101.78499654653892 33.489190136108576 H 0.0 **** 0.06
8135 H 101.00055946829683 103.49010467818918 33.39658733780371 H 0.0 **** 0.06
8136 C 94.77787370353337 84.24828102674036 28.973044798043674 C 0.0 **** -0.24
8137 H 95.76710836075597 84.20761408204521 29.427200746902088 H 0.0 **** 0.06
8138 H 94.43422334030214 85.28292947421971 28.9415679263017 H 0.0 **** 0.06
8139 H 94.08225684859758 83.65132959963816 29.5634276598702 H 0.0 **** 0.06
8140 H 94.82686489606283 83.8508100607672 27.95867087368937 H 0.0 **** 0.06
8141 C 78.89250778672985 94.73799183387464 105.2474697575165 C 0.0 **** -0.24
8142 H 79.63867075359516 94.91859473978744 106.02068065011063 H 0.0 **** 0.06
8143 H 79.3557852490336 94.8362281726819 104.26488724314449 H 0.0 **** 0.06
8144 H 78.08639667883725 95.4658469093353 105.34396646646708 H 0.0 **** 0.06
8145 H 78.48903066683818 93.73228556712353 105.36030048847552 H 0.0 **** 0.06
8146 C 77.09073195893423 0.4849127304444494 38.418724921341 C 0.0 **** -0.24
8147 H 76.07832715303532 0.887150702799687 38.451737315513974 H 0.0 **** 0.06
8148 H 77.10204644551982 -0.5087648164993936 38.86744828597064 H 0.0 **** 0.06
8149 H 77.76131606613707 1.1417719140368945 38.97298991849467 H 0.0 **** 0.06
8150 H 77.42225318872033 0.4195799989395823 37.381743204878575 H 0.0 **** 0.06
8151 C 3.354785537941339 84.72492266226473 9.825366652348634 C 0.0 **** -0.24
8152 H 3.108051209552997 85.77835278905135 9.692947440739545 H 0.0 **** 0.06
8153 H 2.804457170340598 84.12829225836623 9.097773660580174 H 0.0 **** 0.06
8154 H 3.0822274339994635 84.41091845862904 10.833031852363092 H 0.0 **** 0.06
8155 H 4.425326905122574 84.58251751984211 9.677699236402077 H 0.0 **** 0.06
8156 C 33.850696068975395 56.56793469248028 38.67172147242126 C 0.0 **** -0.24
8157 H 34.005636803495435 56.79767945526896 39.7262803640913 H 0.0 **** 0.06
8158 H 34.541945118696674 55.78289379017684 38.365365088320985 H 0.0 **** 0.06
8159 H 34.02738348354501 57.462613966780786 38.07612917686213 H 0.0 **** 0.06
8160 H 32.825419106772074 56.22845635215097 38.521980531439326 H 0.0 **** 0.06
8161 C 94.17923886807922 94.1557120225136 41.08354966783822 C 0.0 **** -0.24
8162 H 94.27577149613552 95.21012409347665 40.82537079997306 H 0.0 **** 0.06
8163 H 95.17016012511212 93.70751561785892 41.157602088852634 H 0.0 **** 0.06
8164 H 93.6055756322872 93.6440239682257 40.310031350753874 H 0.0 **** 0.06
8165 H 93.66476627756684 94.0606178832339 42.03970643271822 H 0.0 **** 0.06
8166 C 29.298284956322476 68.71514306830896 8.69494185573828 C 0.0 **** -0.24
8167 H 28.24914665530582 68.9629005913536 8.86082076010266 H 0.0 **** 0.06
8168 H 29.395883732675827 67.6406625955997 8.538436522057186 H 0.0 **** 0.06
8169 H 29.8826601658418 69.01077339677818 9.566008448922597 H 0.0 **** 0.06
8170 H 29.662461398713475 69.24591525958395 7.8159054181993675 H 0.0 **** 0.06
8171 C 2.0406613791323593 70.40214950127994 79.35835582516209 C 0.0 **** -0.24
8172 H 1.146632555293266 69.81748259691703 79.57404254063168 H 0.0 **** 0.06
8173 H 2.5194734985002896 70.014446981461 78.45819278491567 H 0.0 **** 0.06
8174 H 2.7327667464973615 70.33089159774768 80.19760441396092 H 0.0 **** 0.06
8175 H 1.7640291691373164 71.4448371060219 79.20255825887122 H 0.0 **** 0.06
8176 C 84.85300462051924 83.51688611142231 11.924352930304494 C 0.0 **** -0.24
8177 H 85.44360045017676 84.22457271299402 11.342493023624968 H 0.0 **** 0.06
8178 H 85.11415755424024 83.60881015902442 12.978985500778975 H 0.0 **** 0.06
8179 H 85.06338665527747 82.50310400436751 11.583873946100226 H 0.0 **** 0.06
8180 H 83.79387849176729 83.73327059326175 11.791785149415375 H 0.0 **** 0.06
8181 C 100.23903392178659 38.47608525166699 35.2220343545537 C 0.0 **** -0.24
8182 H 99.54903374827342 37.91173938738493 35.85028770146914 H 0.0 **** 0.06
8183 H 101.26112943903776 38.1588891677915 35.42996252674618 H 0.0 **** 0.06
8184 H 100.13732288922449 39.53917523674271 35.43580097783109 H 0.0 **** 0.06
8185 H 100.0075313349089 38.29154574561889 34.17298124201591 H 0.0 **** 0.06
8186 C 40.197228843670715 11.431688994406272 57.88890848275841 C 0.0 **** -0.24
8187 H 41.26147590577385 11.624440939335216 58.02820541508845 H 0.0 **** 0.06
8188 H 39.62111730530641 12.087654344910945 58.5403527176839 H 0.0 **** 0.06
8189 H 39.98123762144949 10.392563492978866 58.13640327537965 H 0.0 **** 0.06
8190 H 39.92706873929295 11.62152670111577 56.84935427838113 H 0.0 **** 0.06
8191 C 54.480483125982325 73.40937709993281 67.57663676057679 C 0.0 **** -0.24
8192 H 53.8125124638274 73.52798976698159 68.4294332837664 H 0.0 **** 0.06
8193 H 53.894494231233566 73.17964040906445 66.68573617321496 H 0.0 **** 0.06
8194 H 55.178215590884314 72.59564182158455 67.77193644576751 H 0.0 **** 0.06
8195 H 55.03473667791377 74.33426938678318 67.41839029140426 H 0.0 **** 0.06
8196 C 74.63911579881567 83.15665564624595 101.63710038564291 C 0.0 **** -0.24
8197 H 74.81805156884262 84.18457554561127 101.9524515820861 H 0.0 **** 0.06
8198 H 75.54800136801921 82.57070352770344 101.77633714890656 H 0.0 **** 0.06
8199 H 74.35565784768755 83.14355562972992 100.58448758612221 H 0.0 **** 0.06
8200 H 73.83517263882526 82.72847746957791 102.2357150756668 H 0.0 **** 0.06
8201 C 91.42470897572855 70.0538480932711 98.97129333160069 C 0.0 **** -0.24
8202 H 92.22206231653371 70.60224958308125 99.47283013084414 H 0.0 **** 0.06
8203 H 91.36591762057698 70.36838800409878 97.92896710527428 H 0.0 **** 0.06
8204 H 90.47468927908469 70.26032665304639 99.46649328426258 H 0.0 **** 0.06
8205 H 91.63295824221018 68.98496994168025 99.0184361654968 H 0.0 **** 0.06
8206 C 84.32380169824313 17.169859707914384 26.497095946161465 C 0.0 **** -0.24
8207 H 83.34562368932677 17.05451127736086 26.030779309045073 H 0.0 **** 0.06
8208 H 84.50853047363273 18.225977963478158 26.69692156688862 H 0.0 **** 0.06
8209 H 85.09251569618817 16.786855181274433 25.82615704132789 H 0.0 **** 0.06
8210 H 84.34732211803387 16.61249912231142 27.432989438289525 H 0.0 **** 0.06
8211 C 23.80050381512885 71.2477705596763 5.303431371304082 C 0.0 **** -0.24
8212 H 22.895937608067854 71.12658627787874 5.899779486982137 H 0.0 **** 0.06
8213 H 23.80422451201251 72.23701905531573 4.846585399226466 H 0.0 **** 0.06
8214 H 23.82632954144738 70.48663984247924 4.523700158474172 H 0.0 **** 0.06
8215 H 24.674985994810825 71.1396709851459 5.945193877296063 H 0.0 **** 0.06
8216 C 72.92787679283532 19.30464147662367 62.578627081962935 C 0.0 **** -0.24
8217 H 73.36814087754979 18.348456426303997 62.86320824588475 H 0.0 **** 0.06
8218 H 71.88226315397664 19.156299377632063 62.30699775198504 H 0.0 **** 0.06
8219 H 73.46964842170354 19.713901668982388 61.72544929149805 H 0.0 **** 0.06
8220 H 72.99217318824473 19.99814146699638 63.416330720055996 H 0.0 **** 0.06
8221 C 76.01890733207208 71.69663202221906 31.569506081431342 C 0.0 **** -0.24
8222 H 76.01422572886891 72.0179149181302 32.610926782590695 H 0.0 **** 0.06
8223 H 77.0208089234457 71.3641456668131 31.297179529352775 H 0.0 **** 0.06
8224 H 75.72595953403295 72.53044231295627 30.93125714209856 H 0.0 **** 0.06
8225 H 75.31591660876347 70.87420368938314 31.439231899876376 H 0.0 **** 0.06
8226 C 51.27648186563522 94.394729360462 104.68179406888655 C 0.0 **** -0.24
8227 H 50.72641282701801 93.52222781019879 105.03287918456405 H 0.0 **** 0.06
8228 H 52.316042609397016 94.32128134900583 104.99994893703752 H 0.0 **** 0.06
8229 H 50.830266062742 95.2970028411707 105.10040575786107 H 0.0 **** 0.06
8230 H 51.23126224123388 94.43975841435294 103.59331654875737 H 0.0 **** 0.06
8231 C 16.058536692787044 51.23191319282629 89.38024722291459 C 0.0 **** -0.24
8232 H 16.34883308194901 52.15838945737788 89.87599056200041 H 0.0 **** 0.06
8233 H 15.939659765895613 50.44416572973871 90.1243412556069 H 0.0 **** 0.06
8234 H 16.8298067461873 50.94432079702 88.66575521863672 H 0.0 **** 0.06
8235 H 15.114556615493058 51.38117890332243 88.85531760220138 H 0.0 **** 0.06
8236 C 84.10856279564359 72.06159501291486 98.56634537273187 C 0.0 **** -0.24
8237 H 84.68758444942267 71.65424258510257 99.39479428781553 H 0.0 **** 0.06
8238 H 83.34972415927189 72.74249921279471 98.95343471276023 H 0.0 **** 0.06
8239 H 83.62514463501475 71.24755264721375 98.0264318563824 H 0.0 **** 0.06
8240 H 84.77092590099159 72.60250631204462 97.89097083964509 H 0.0 **** 0.06
8241 C 96.04760138609045 48.930832179941774 35.009865226962546 C 0.0 **** -0.24
8242 H 94.99221112889484 48.85329223618084 34.74910737369086 H 0.0 **** 0.06
8243 H 96.16216816654591 48.83629648578263 36.0906604241726 H 0.0 **** 0.06
8244 H 96.42973543818397 49.899299428322664 34.68796394076563 H 0.0 **** 0.06
8245 H 96.60410309697212 48.13601235557434 34.51338562852956 H 0.0 **** 0.06
8246 C 41.9609707994899 10.770427432279964 93.00780436146292 C 0.0 **** -0.24
8247 H 40.956045757292486 11.191103672027461 93.04416190551224 H 0.0 **** 0.06
8248 H 41.977123790699935 9.823556340305146 93.54858710634771 H 0.0 **** 0.06
8249 H 42.66302707151257 11.464787937886875 93.46827818073234 H 0.0 **** 0.06
8250 H 42.24522183893319 10.599610298886475 91.96924401993837 H 0.0 **** 0.06
8251 C 27.180261505169206 2.688119477993439 67.20867637096737 C 0.0 **** -0.24
8252 H 27.887452200873884 1.9976141084432015 66.7498688618702 H 0.0 **** 0.06
8253 H 26.515296223563574 3.0890562285026846 66.44164654808839 H 0.0 **** 0.06
8254 H 27.725052523697073 3.5054797781068316 67.68023289304534 H 0.0 **** 0.06
8255 H 26.592936442399132 2.1611550304097875 67.96008997898491 H 0.0 **** 0.06
8256 C 106.3622338944096 45.71289286360491 5.125649662887724 C 0.0 **** -0.24
8257 H 107.01312356026216 45.18847867481133 5.825983266449441 H 0.0 **** 0.06
8258 H 106.82893848166844 45.72810415779787 4.140213110221964 H 0.0 **** 0.06
8259 H 106.20653017240977 46.73508800605615 5.470564360345122 H 0.0 **** 0.06
8260 H 105.40357686761524 45.19916013406358 5.0668362577984 H 0.0 **** 0.06
8261 C 79.4473590067715 5.2695381914282855 43.83171993504811 C 0.0 **** -0.24
8262 H 79.87649415732452 6.271535659338264 43.837949571975656 H 0.0 **** 0.06
8263 H 78.58001541244377 5.250104054213853 43.17202750698854 H 0.0 **** 0.06
8264 H 79.14195526678301 4.9995799744153135 44.84345305199409 H 0.0 **** 0.06
8265 H 80.19293965567832 4.55824031369046 43.47529803927014 H 0.0 **** 0.06
8266 C 45.07151141085703 5.9370352614203625 49.66552222595385 C 0.0 **** -0.24
8267 H 45.054120692196335 5.788954441289334 48.585693374622366 H 0.0 **** 0.06
8268 H 44.28487020572774 5.339043490411129 50.12706444950601 H 0.0 **** 0.06
8269 H 44.90583931789058 6.991084012934891 49.88906128217246 H 0.0 **** 0.06
8270 H 46.04064792541266 5.629509445004288 50.05869649852329 H 0.0 **** 0.06
8271 C 87.65744190406423 43.653456764445025 65.20017969674359 C 0.0 **** -0.24
8272 H 87.00342967939423 43.90675797940105 66.03451248840952 H 0.0 **** 0.06
8273 H 88.65489483214986 43.422618132984496 65.57753497304698 H 0.0 **** 0.06
8274 H 87.71475348274873 44.4977444723454 64.51390693080475 H 0.0 **** 0.06
8275 H 87.25723312569693 42.785417319061025 64.6757855821743 H 0.0 **** 0.06
8276 C 71.12317347611035 66.71776084636392 81.56968630678128 C 0.0 **** -0.24
8277 H 71.67073509610374 66.10771202946162 82.28705674913189 H 0.0 **** 0.06
8278 H 71.06836851711792 67.74430984296916 81.93311761736194 H 0.0 **** 0.06
8279 H 70.11488455646982 66.32043035840279 81.45036457693405 H 0.0 **** 0.06
8280 H 71.63760952952143 66.69899109615233 80.6090053287306 H 0.0 **** 0.06
8281 C 4.30655137112069 12.172003698848773 12.04551375572673 C 0.0 **** -0.24
8282 H 4.799570663794867 11.709680912668755 11.189655484158365 H 0.0 **** 0.06
8283 H 4.033242503392927 11.400428747826206 12.766680281111093 H 0.0 **** 0.06
8284 H 3.408167601021418 12.690944979985268 11.7111632519687 H 0.0 **** 0.06
8285 H 4.985688919884183 12.883677448240046 12.51446188646645 H 0.0 **** 0.06
8286 C 73.48550243838469 44.56288133974613 46.43542922151799 C 0.0 **** -0.24
8287 H 73.69279471870095 45.455099068471384 47.02600616703694 H 0.0 **** 0.06
8288 H 72.56209135991969 44.70482189150903 45.87377312036706 H 0.0 **** 0.06
8289 H 73.37867382259662 43.704382254264715 47.09915409976275 H 0.0 **** 0.06
8290 H 74.30873892090312 44.38629788388948 45.74253404493271 H 0.0 **** 0.06
8291 C 3.7713007940739054 9.01564048152278 9.80933831989222 C 0.0 **** -0.24
8292 H 4.000233047770419 8.896140865300353 10.868032112029482 H 0.0 **** 0.06
8293 H 4.08175650605219 10.00812896371977 9.481088994316735 H 0.0 **** 0.06
8294 H 2.6980700154722594 8.900232792062383 9.655025301542679 H 0.0 **** 0.06
8295 H 4.304472777590246 8.259375918748319 9.23455472195161 H 0.0 **** 0.06
8296 C 78.27787394391748 31.188713811322337 12.07894537462375 C 0.0 **** -0.24
8297 H 79.20278611261358 30.84028380885536 11.619821534571058 H 0.0 **** 0.06
8298 H 77.4269054793977 30.72353182045245 11.579623658559871 H 0.0 **** 0.06
8299 H 78.20951610471218 32.27217378392649 11.981634545784852 H 0.0 **** 0.06
8300 H 78.2717588761582 30.91775732005201 13.135402643053414 H 0.0 **** 0.06
8301 C 77.66529433114167 24.346080523634782 25.64908441404401 C 0.0 **** -0.24
8302 H 78.35666668820377 23.50476380918107 25.706024741130918 H 0.0 **** 0.06
8303 H 78.10631599088399 25.137262695187275 25.042877875342583 H 0.0 **** 0.06
8304 H 77.46853963071572 24.723014133550464 26.652381636378635 H 0.0 **** 0.06
8305 H 76.73085613628658 24.0175320261568 25.194348399508726 H 0.0 **** 0.06
8306 C 78.33915135094395 48.14758728978039 16.148555750105164 C 0.0 **** -0.24
8307 H 77.89934633238533 47.15081319915601 16.136996339666453 H 0.0 **** 0.06
8308 H 79.39965465663033 48.07951936431849 15.906059969685277 H 0.0 **** 0.06
8309 H 78.2203770979489 48.58541381023055 17.140267087541236 H 0.0 **** 0.06
8310 H 77.83681517603202 48.774746106862544 15.41179940627815 H 0.0 **** 0.06
8311 C 90.07175743072 5.734795528772537 68.5657424975818 C 0.0 **** -0.24
8312 H 89.67765172117518 6.739307731873993 68.72175742803006 H 0.0 **** 0.06
8313 H 89.49988677920508 5.023211716865205 69.16231286076396 H 0.0 **** 0.06
8314 H 91.11851347754342 5.7046338313243155 68.86695790645426 H 0.0 **** 0.06
8315 H 89.98963750589539 5.472483713599075 67.51021058885662 H 0.0 **** 0.06
8316 C 65.80760176268521 3.6823269464632915 92.03566603620932 C 0.0 **** -0.24
8317 H 66.43022169733379 3.191927966835067 92.7841518261208 H 0.0 **** 0.06
8318 H 64.77116935012637 3.369543819974041 92.16363201208544 H 0.0 **** 0.06
8319 H 66.1513648965607 3.404506618219358 91.03917043051842 H 0.0 **** 0.06
8320 H 65.87890645740407 4.762776015012918 92.15605334814111 H 0.0 **** 0.06
8321 C 35.40980850083503 18.923735005512132 100.74980987054904 C 0.0 **** -0.24
8322 H 35.973048689597306 18.87463422986646 99.81721222413823 H 0.0 **** 0.06
8323 H 34.342813216982364 18.93433474202005 100.5283479197705 H 0.0 **** 0.06
8324 H 35.678573939667075 19.831960733539393 101.2888088049555 H 0.0 **** 0.06
8325 H 35.644968412378745 18.053593892210856 101.36268013745749 H 0.0 **** 0.06
8326 C 41.2134179450062 43.55825912873337 104.43236513385439 C 0.0 **** -0.24
8327 H 40.67355283043116 43.86444796264419 105.32800721084946 H 0.0 **** 0.06
8328 H 40.500519752720436 43.26832853770645 103.66013191048508 H 0.0 **** 0.06
8329 H 41.85818852609532 42.71231606003704 104.6673967484243 H 0.0 **** 0.06
8330 H 41.820423125199454 44.389410471212614 104.07255561020426 H 0.0 **** 0.06
8331 C 42.75978711627499 100.77451334934806 43.53149901318247 C 0.0 **** -0.24
8332 H 41.720943121470214 100.85299262109507 43.853840321302584 H 0.0 **** 0.06
8333 H 43.01211212211956 99.72555126792395 43.37545298999632 H 0.0 **** 0.06
8334 H 43.409955701679564 101.19553739621706 44.29801531653962 H 0.0 **** 0.06
8335 H 42.89298622075273 101.32375852856322 42.599699453892526 H 0.0 **** 0.06
8336 C 82.15992349093642 78.48910979005518 56.38854589465171 C 0.0 **** -0.24
8337 H 81.68101847299175 78.75754532278125 57.330806532294446 H 0.0 **** 0.06
8338 H 81.50797200653255 78.76264384935666 55.55865306433418 H 0.0 **** 0.06
8339 H 82.34226300029343 77.41489610504226 56.36822481716899 H 0.0 **** 0.06
8340 H 83.1067001309541 79.02109010279423 56.297878230343656 H 0.0 **** 0.06
8341 C 46.21737817906828 27.79080850164337 30.00281966035096 C 0.0 **** -0.24
8342 H 47.10453576970186 28.35429624784966 29.71325845644086 H 0.0 **** 0.06
8343 H 46.07208862172437 26.961569686588973 29.310902315965627 H 0.0 **** 0.06
8344 H 45.34629838535896 28.446158733775903 29.97334389160462 H 0.0 **** 0.06
8345 H 46.34722201929253 27.404029028010186 31.012967602899252 H 0.0 **** 0.06
8346 C 92.00163272196158 35.458720219357275 104.40753735506368 C 0.0 **** -0.24
8347 H 92.47587640006134 35.93350588670805 105.26588528247564 H 0.0 **** 0.06
8348 H 91.16124346732187 34.85233387846924 104.7464565885031 H 0.0 **** 0.06
8349 H 92.72558204981118 34.82391336535818 103.89677191995719 H 0.0 **** 0.06
8350 H 91.6434658932443 36.22584311621483 103.72043858026038 H 0.0 **** 0.06
8351 C 13.450670337711813 67.82855473772386 32.0436152329755 C 0.0 **** -0.24
8352 H 13.417623719621503 68.82886997309356 31.61161052279342 H 0.0 **** 0.06
8353 H 13.11733818402854 67.1017170605212 31.301963403832247 H 0.0 **** 0.06
8354 H 12.795629893836235 67.78649509127112 32.913717354631544 H 0.0 **** 0.06
8355 H 14.471447585215657 67.59742450138577 32.346458900459275 H 0.0 **** 0.06
8356 C 2.205898462545292 25.738315780763912 41.553079297603915 C 0.0 **** -0.24
8357 H 2.9896565896336824 26.021299703452556 42.25581609704136 H 0.0 **** 0.06
8358 H 2.6523899052339175 25.50732458446663 40.584845202886584 H 0.0 **** 0.06
8359 H 1.5023461851333195 26.562158119663067 41.44147906797065 H 0.0 **** 0.06
8360 H 1.6808048278756473 24.860658268075326 41.92984934157792 H 0.0 **** 0.06
8361 C 5.043778949457945 28.223729568696854 15.253820981123795 C 0.0 **** -0.24
8362 H 4.319427655167615 27.487138593615327 14.907980573143888 H 0.0 **** 0.06
8363 H 4.583367320597944 28.859273207622323 16.011283979109265 H 0.0 **** 0.06
8364 H 5.367658673107883 28.83630835920121 14.412654030184186 H 0.0 **** 0.06
8365 H 5.905324246537646 27.711850343653282 15.6840292158316 H 0.0 **** 0.06
8366 C 17.654338464838574 48.65207070209436 81.98505491406559 C 0.0 **** -0.24
8367 H 16.65403836444851 48.27160252421879 81.77715492854134 H 0.0 **** 0.06
8368 H 17.742030563576748 48.87808195727956 83.0480740798606 H 0.0 **** 0.06
8369 H 17.825487923760093 49.558673097785686 81.40437197097987 H 0.0 **** 0.06
8370 H 18.393349666211634 47.899875329837414 81.71070981762057 H 0.0 **** 0.06
8371 C 92.97025763462997 104.83391120452845 78.30956860261813 C 0.0 **** -0.24
8372 H 93.99101793285264 105.0079952977193 77.96844271186777 H 0.0 **** 0.06
8373 H 92.2733584062692 105.33963180191859 77.64161888442413 H 0.0 **** 0.06
8374 H 92.85340346056995 105.22434258546062 79.32054444252535 H 0.0 **** 0.06
8375 H 92.7653032064742 103.76291921648843 78.30720340175742 H 0.0 **** 0.06
8376 C 26.207519449066695 30.832771895289 102.92234155230979 C 0.0 **** -0.24
8377 H 27.070764632763385 30.77834219723087 102.25784930868144 H 0.0 **** 0.06
8378 H 25.95310107884562 29.83111250667099 103.2700850059748 H 0.0 **** 0.06
8379 H 25.360646941166365 31.25672151004784 102.38139936206296 H 0.0 **** 0.06
8380 H 26.44607216458607 31.465116922638458 103.77633100293794 H 0.0 **** 0.06
8381 C 92.73942823117414 103.17291833838914 41.54833062531344 C 0.0 **** -0.24
8382 H 93.7677963747318 102.8172661954406 41.48904997021316 H 0.0 **** 0.06
8383 H 92.72589923816196 104.1743808912633 41.97970456872622 H 0.0 **** 0.06
8384 H 92.15736547867601 102.49768383019779 42.174977245953414 H 0.0 **** 0.06
8385 H 92.30819914851133 103.20257162052854 40.546666028962136 H 0.0 **** 0.06
8386 C 39.430513458722345 56.34573871729009 73.78146196794052 C 0.0 **** -0.24
8387 H 39.695658327309644 55.43527539899384 74.31871278635919 H 0.0 **** 0.06
8388 H 38.738911443257024 56.10132935526701 72.97403982948418 H 0.0 **** 0.06
8389 H 40.330790287713995 56.79743208532716 73.3652619879038 H 0.0 **** 0.06
8390 H 38.9556055043621 57.04699623525886 74.46748312465417 H 0.0 **** 0.06
8391 C 68.01174040184821 28.283510461732277 56.82253904135765 C 0.0 **** -0.24
8392 H 67.36872668399377 28.44975479209637 55.9574055512864 H 0.0 **** 0.06
8393 H 67.40913809638539 28.295671297357245 57.730977428281534 H 0.0 **** 0.06
8394 H 68.76215864081183 29.071756135600936 56.87335127052979 H 0.0 **** 0.06
8395 H 68.5052454176934 27.316516414164283 56.72668495835816 H 0.0 **** 0.06
8396 C 49.48465503867092 16.84745157017039 102.43636407131763 C 0.0 **** -0.24
8397 H 48.679107637905474 17.21913708502216 101.80281455781673 H 0.0 **** 0.06
8398 H 49.814176203017446 17.640773758406333 103.10698199187843 H 0.0 **** 0.06
8399 H 50.31893153066602 16.527581092942505 101.81280230473726 H 0.0 **** 0.06
8400 H 49.12422701295267 16.00218867166316 103.02236574614798 H 0.0 **** 0.06
8401 C 76.11222129040408 43.135136437418424 61.50069853499005 C 0.0 **** -0.24
8402 H 75.43585646914873 42.384115296721895 61.909376404804334 H 0.0 **** 0.06
8403 H 75.66958396422633 44.124309969776235 61.61728593654833 H 0.0 **** 0.06
8404 H 76.2803131651977 42.93421712356291 60.44221835108664 H 0.0 **** 0.06
8405 H 77.06179621936819 43.096380166883556 62.03296636176982 H 0.0 **** 0.06
8406 C 81.1055491405591 39.53591717190926 56.46189708570624 C 0.0 **** -0.24
8407 H 80.81915555431516 40.16769114271341 55.621672100113216 H 0.0 **** 0.06
8408 H 82.00850793450456 39.93279779183962 56.924233357495986 H 0.0 **** 0.06
8409 H 81.293745533415 38.523170811991434 56.106540080871 H 0.0 **** 0.06
8410 H 80.29885812930291 39.51887912809812 57.19510923063695 H 0.0 **** 0.06
8411 C 74.92573829715397 79.17890912692687 78.28284283229762 C 0.0 **** -0.24
8412 H 74.96364270297394 80.26624933002037 78.33665898933829 H 0.0 **** 0.06
8413 H 75.9180734051526 78.79186641080713 78.05425014657538 H 0.0 **** 0.06
8414 H 74.22838859231882 78.87752185477703 77.50155109224482 H 0.0 **** 0.06
8415 H 74.59190923669868 78.77934504098025 79.24107686545018 H 0.0 **** 0.06
8416 C 41.226286071461686 94.28498093967268 64.52282414838572 C 0.0 **** -0.24
8417 H 41.60936883846256 93.70806485103724 65.36487768128052 H 0.0 **** 0.06
8418 H 40.89411664708163 93.60479698312115 63.738367025357604 H 0.0 **** 0.06
8419 H 42.014067853315765 94.92909814493223 64.13546839593567 H 0.0 **** 0.06
8420 H 40.386594534783654 94.89599532167219 64.85364773360902 H 0.0 **** 0.06
8421 C 18.245871566627102 23.2099452454802 11.320263842445419 C 0.0 **** -0.24
8422 H 18.015679922216407 23.538704261514667 12.333552059415778 H 0.0 **** 0.06
8423 H 19.173584212489914 23.676945267698414 10.988848762803844 H 0.0 **** 0.06
8424 H 17.434717669981723 23.49881113568628 10.651356079595233 H 0.0 **** 0.06
8425 H 18.35851131881796 22.126263292021406 11.306945541313482 H 0.0 **** 0.06
8426 C 101.39394802708992 29.287994772253846 7.513392204624822 C 0.0 **** -0.24
8427 H 100.83180778316782 30.127328017489063 7.9239708217181 H 0.0 **** 0.06
8428 H 100.7027555102699 28.49586652745335 7.223820969686699 H 0.0 **** 0.06
8429 H 102.08504015804075 28.910503224882 8.266696579503574 H 0.0 **** 0.06
8430 H 101.95481020024596 29.620034513883333 6.6392429157922805 H 0.0 **** 0.06
8431 C 11.22282223569593 13.009413388941297 24.244756134817322 C 0.0 **** -0.24
8432 H 11.433973389216234 13.367356691793304 23.237242127314175 H 0.0 **** 0.06
8433 H 11.936488324537834 12.22829823460311 24.508656840905275 H 0.0 **** 0.06
8434 H 10.211164183296717 12.605255043639975 24.28207540836759 H 0.0 **** 0.06
8435 H 11.311839143593957 13.836291843310455 24.94903498494307 H 0.0 **** 0.06
8436 C 6.5219825462213805 18.55565786595386 84.32388284747023 C 0.0 **** -0.24
8437 H 6.820683865746588 19.599205457561396 84.4205711517055 H 0.0 **** 0.06
8438 H 6.621196944775875 18.058674715578405 85.28966544530721 H 0.0 **** 0.06
8439 H 7.161987429274205 18.06099356508291 83.59321760981243 H 0.0 **** 0.06
8440 H 5.484377312024122 18.503910332779455 83.9930138264194 H 0.0 **** 0.06
8441 C 1.5450777900413186 37.18001726848081 24.49395286328717 C 0.0 **** -0.24
8442 H 1.2406066437964967 38.22007404922323 24.607877789633523 H 0.0 **** 0.06
8443 H 2.5334690999096523 37.13950549298846 24.034904743495275 H 0.0 **** 0.06
8444 H 0.8279340406944158 36.659866086769796 23.858385140487016 H 0.0 **** 0.06
8445 H 1.5779588393173754 36.70189822394289 25.47258031555942 H 0.0 **** 0.06
8446 C 101.93443398593753 57.78409562008525 70.29387780442693 C 0.0 **** -0.24
8447 H 101.67835041804923 57.7463558770167 71.35298528403995 H 0.0 **** 0.06
8448 H 101.11999918760557 58.251843759502776 69.74058281043945 H 0.0 **** 0.06
8449 H 102.09260609083235 56.770594875355044 69.92287563036594 H 0.0 **** 0.06
8450 H 102.84605923567935 58.36588211714391 70.16181898701862 H 0.0 **** 0.06
8451 C 14.189476875510536 74.17549763523766 88.22404231123497 C 0.0 **** -0.24
8452 H 13.308068363233218 74.48310866726047 88.78719879035602 H 0.0 **** 0.06
8453 H 14.279562016158877 73.08953405193915 88.25579898024712 H 0.0 **** 0.06
8454 H 15.078609705358616 74.62657514048095 88.66605550372685 H 0.0 **** 0.06
8455 H 14.092363915272273 74.50338927208841 87.18978712667219 H 0.0 **** 0.06
8456 C 32.1347984306783 54.343360563851945 82.2388857144712 C 0.0 **** -0.24
8457 H 33.183816057764545 54.40115868669299 81.94623034845469 H 0.0 **** 0.06
8458 H 31.668078020280632 55.32026201396107 82.1121918796803 H 0.0 **** 0.06
8459 H 32.06594465500622 54.038632547865205 83.28230299390574 H 0.0 **** 0.06
8460 H 31.623811783331092 53.61223519320618 81.61244414106167 H 0.0 **** 0.06
8461 C 11.100692915131788 10.309385256348492 90.89763977717757 C 0.0 **** -0.24
8462 H 11.879745069159412 11.062066947180085 91.02023153169489 H 0.0 **** 0.06
8463 H 10.183808324749748 10.788370469586653 90.55486215599916 H 0.0 **** 0.06
8464 H 10.918661618462124 9.816435522119264 91.85274390009937 H 0.0 **** 0.06
8465 H 11.422889203599425 9.571156274751957 90.16328820745315 H 0.0 **** 0.06
8466 C 73.68452728308485 55.76317159344336 81.43765765234855 C 0.0 **** -0.24
8467 H 72.71243459073983 55.742832806581255 81.92958427773499 H 0.0 **** 0.06
8468 H 74.46987149979522 55.620798075898044 82.18045842082518 H 0.0 **** 0.06
8469 H 73.82082428286168 56.72445485963553 80.94308887292891 H 0.0 **** 0.06
8470 H 73.73360022725979 54.963470277682795 80.69884891957679 H 0.0 **** 0.06
8471 C 103.298372897689 82.08871417323758 97.80890146951025 C 0.0 **** -0.24
8472 H 102.87822831216953 81.08731556266292 97.90578844043966 H 0.0 **** 0.06
8473 H 102.95981929487589 82.70648296999069 98.64048000710389 H 0.0 **** 0.06
8474 H 102.96863398918259 82.5313419993722 96.86905011913029 H 0.0 **** 0.06
8475 H 104.38643443006032 82.02802527675944 97.82028777379708 H 0.0 **** 0.06
8476 C 7.082534863315601 46.319196348170976 61.57958623648571 C 0.0 **** -0.24
8477 H 7.280363639282598 46.17126680047795 60.517272065746624 H 0.0 **** 0.06
8478 H 7.10514235705142 45.355985577502565 62.089399559237336 H 0.0 **** 0.06
8479 H 6.099812020304142 46.774833450425035 61.70526201015198 H 0.0 **** 0.06
8480 H 7.843910907661353 46.973638843217486 62.003574716312784 H 0.0 **** 0.06
8481 C 51.232490237484825 27.461925946238466 15.78785249988826 C 0.0 **** -0.24
8482 H 50.893049176705915 27.159003551083686 14.79718680967207 H 0.0 **** 0.06
8483 H 50.845731183426665 26.766013952618536 16.533279025141724 H 0.0 **** 0.06
8484 H 50.86789866805398 28.466091601042862 16.005434797430837 H 0.0 **** 0.06
8485 H 52.32228800066147 27.456501028027873 15.81556764407145 H 0.0 **** 0.06
8486 C 61.16364219249374 48.34331957724032 91.84518411098978 C 0.0 **** -0.24
8487 H 61.30996157250226 48.30318507873886 92.92401705125043 H 0.0 **** 0.06
8488 H 61.515674458567105 49.30343361420233 91.46698038505977 H 0.0 **** 0.06
8489 H 60.10335784100644 48.2290717985814 91.61854724252692 H 0.0 **** 0.06
8490 H 61.72466065418803 47.537669992224124 91.37158856707437 H 0.0 **** 0.06
8491 C 66.93851389682717 22.958575466865177 97.4107210873826 C 0.0 **** -0.24
8492 H 66.94828995510548 22.103995023630763 98.08655861118632 H 0.0 **** 0.06
8493 H 67.05069835236674 23.877967013943323 97.98612579513203 H 0.0 **** 0.06
8494 H 65.99353039776258 22.981578223150766 96.86765223095804 H 0.0 **** 0.06
8495 H 67.76195463561106 22.870053913659376 96.70139673676003 H 0.0 **** 0.06
8496 C 95.67484793263358 39.80328101860334 1.19191099304021 C 0.0 **** -0.24
8497 H 95.29807505146837 40.81115022977576 1.3647043205768057 H 0.0 **** 0.06
8498 H 96.51644275645558 39.61120458299911 1.856958715579566 H 0.0 **** 0.06
8499 H 96.00182334029287 39.7113382710657 0.15554311332078896 H 0.0 **** 0.06
8500 H 94.88297877357908 39.08101751827127 1.3888636550921376 H 0.0 **** 0.06
8501 C 72.46807919850374 38.36889853885316 29.45941343994224 C 0.0 **** -0.24
8502 H 72.64669196834097 38.8420105514856 30.424940862449702 H 0.0 **** 0.06
8503 H 72.56504062523851 37.28784595441101 29.560603896422492 H 0.0 **** 0.06
8504 H 73.19689609558299 38.73345493031485 28.736096609933554 H 0.0 **** 0.06
8505 H 71.4623486119578 38.61246244145627 29.116428985239793 H 0.0 **** 0.06
8506 C 60.423202506788016 42.8838429413928 55.78245237076259 C 0.0 **** -0.24
8507 H 60.36891538080778 42.32690373785243 56.717799009255785 H 0.0 **** 0.06
8508 H 61.15670923213321 43.6843566452327 55.87780117194607 H 0.0 **** 0.06
8509 H 59.44573120170236 43.3106410641617 55.5569619418518 H 0.0 **** 0.06
8510 H 60.72091256378354 42.21187923572734 54.977665942094404 H 0.0 **** 0.06
8511 C 32.786972614197566 44.244388745693016 69.20130894332392 C 0.0 **** -0.24
8512 H 33.81390093888655 43.89906634349302 69.32080104347654 H 0.0 **** 0.06
8513 H 32.449224939679596 44.03620091257574 68.18659322257531 H 0.0 **** 0.06
8514 H 32.74187840727973 45.317705604782304 69.38764511859218 H 0.0 **** 0.06
8515 H 32.14463074737398 43.72550591205669 69.91321361643388 H 0.0 **** 0.06
8516 C 91.11840358831148 62.92519396899718 66.05199506286331 C 0.0 **** -0.24
8517 H 90.50254415339305 62.919438141899036 66.95122847333568 H 0.0 **** 0.06
8518 H 92.07910427077502 63.39199375868321 66.27324817703354 H 0.0 **** 0.06
8519 H 90.61183587907487 63.48808504990336 65.26880706744986 H 0.0 **** 0.06
8520 H 91.2807453340543 61.901068654560845 65.71630443930614 H 0.0 **** 0.06
8521 C 72.92718130363075 64.62074083533548 23.8900678430019 C 0.0 **** -0.24
8522 H 73.24557644647429 65.6187764317873 23.588831735111512 H 0.0 **** 0.06
8523 H 71.84343263969505 64.60666213334622 24.010447996709388 H 0.0 **** 0.06
8524 H 73.4020428659579 64.35820777393491 24.835241679016093 H 0.0 **** 0.06
8525 H 73.21769789968101 63.90106608420558 23.124357001860716 H 0.0 **** 0.06
8526 C 16.074350288518566 58.95154534719097 62.886801258996 C 0.0 **** -0.24
8527 H 16.13992897316244 58.81913886767097 63.966727027811544 H 0.0 **** 0.06
8528 H 15.100851111521344 59.37004045002567 62.63158193621848 H 0.0 **** 0.06
8529 H 16.196839466301633 57.98651914346931 62.39509653822154 H 0.0 **** 0.06
8530 H 16.860654545004472 59.63091832162257 62.55604646068815 H 0.0 **** 0.06
8531 C 44.91231249153748 22.675360281400835 15.79784869737793 C 0.0 **** -0.24
8532 H 43.997270155160116 22.911905103664424 16.34049569076427 H 0.0 **** 0.06
8533 H 45.774600918851334 22.868296225728656 16.43726653157279 H 0.0 **** 0.06
8534 H 44.975729919347316 23.29557600637049 14.90428541057915 H 0.0 **** 0.06
8535 H 44.90144558311358 21.623564702347014 15.510090590908021 H 0.0 **** 0.06
8536 C 105.24610074114386 105.73467571454128 90.76096337918165 C 0.0 **** -0.24
8537 H 104.43425865381917 105.90949428320428 91.46717766231455 H 0.0 **** 0.06
8538 H 105.0255056075849 106.24273938940425 89.8219331251048 H 0.0 **** 0.06
8539 H 105.3459850572309 104.66474711345765 90.58117302703056 H 0.0 **** 0.06
8540 H 106.17680544526894 106.1223391157412 91.17466680831637 H 0.0 **** 0.06
8541 C 52.52695592924972 53.08173199676344 85.36843470537104 C 0.0 **** -0.24
8542 H 53.24743232416227 53.62100960304633 85.98292808016083 H 0.0 **** 0.06
8543 H 53.05650011090234 52.49946816539983 84.6141247473359 H 0.0 **** 0.06
8544 H 51.862642650154115 53.79418262502816 84.87779660369227 H 0.0 **** 0.06
8545 H 51.940284589181445 52.413216194685276 85.99847602616285 H 0.0 **** 0.06
8546 C 41.300554430290106 47.025953257537786 46.86502097777871 C 0.0 **** -0.24
8547 H 41.70648163432017 47.534138853062075 47.73927275956111 H 0.0 **** 0.06
8548 H 41.86054255371485 47.32410009710393 45.978790499388815 H 0.0 **** 0.06
8549 H 40.25170314769932 47.29662480078906 46.742323691915594 H 0.0 **** 0.06
8550 H 41.382775316898574 45.947337884674305 47.0021244072888 H 0.0 **** 0.06
8551 C 87.39383195033298 76.49409817907951 97.48849372346942 C 0.0 **** -0.24
8552 H 87.66205213606369 75.54741296546833 97.95720017052274 H 0.0 **** 0.06
8553 H 87.34072061207388 76.36225402805444 96.40764959602464 H 0.0 **** 0.06
8554 H 88.14811674598019 77.24430795770932 97.72697530940974 H 0.0 **** 0.06
8555 H 86.42405633881631 76.82284689715941 97.86344211738363 H 0.0 **** 0.06
8556 C 7.537401332358456 9.925668225797239 93.11524642667861 C 0.0 **** -0.24
8557 H 6.4649419899186 9.944605377426228 93.30951443222052 H 0.0 **** 0.06
8558 H 8.078596596203653 9.99805200147128 94.05951389916122 H 0.0 **** 0.06
8559 H 7.805765452746755 10.767825409838963 92.4765839718617 H 0.0 **** 0.06
8560 H 7.799285656509511 8.99303572559387 92.61587691251763 H 0.0 **** 0.06
8561 C 23.356681255211356 75.21008409051845 6.94903409425585 C 0.0 **** -0.24
8562 H 24.412056388756895 74.94426217377571 6.981876538019762 H 0.0 **** 0.06
8563 H 22.889896174602256 74.96266682548719 7.902806668936833 H 0.0 **** 0.06
8564 H 22.866094379749313 74.65363100692493 6.149901296344851 H 0.0 **** 0.06
8565 H 23.256463821976666 76.27873380904035 6.761449678854831 H 0.0 **** 0.06
8566 C 105.65553190127365 3.1449436831799176 3.5657433171572563 C 0.0 **** -0.24
8567 H 104.79998633213128 2.478385026415765 3.67621983101931 H 0.0 **** 0.06
8568 H 105.5565618479282 3.979838039504955 4.259867999704966 H 0.0 **** 0.06
8569 H 105.6915647528588 3.52397431251444 2.5439663533331043 H 0.0 **** 0.06
8570 H 106.5726571718286 2.5978453742334864 3.783211403247492 H 0.0 **** 0.06
8571 C 21.406441327031985 67.44499034363884 24.058132813974538 C 0.0 **** -0.24
8572 H 21.997265400016886 67.95361465182668 24.819824305294816 H 0.0 **** 0.06
8573 H 20.359121205781506 67.43373823845576 24.358248814445318 H 0.0 **** 0.06
8574 H 21.76376285748003 66.42136219114383 23.94501586060386 H 0.0 **** 0.06
8575 H 21.507691523848592 67.97147973662408 23.108643970432098 H 0.0 **** 0.06
8576 C 106.26600316546373 19.018797172331276 54.799206864629724 C 0.0 **** -0.24
8577 H 106.96634209317753 18.18390419182427 54.79754011790072 H 0.0 **** 0.06
8578 H 106.41643390321147 19.61643106952964 55.69937302543863 H 0.0 **** 0.06
8579 H 105.24554811107458 18.63809777462309 54.78188385023665 H 0.0 **** 0.06
8580 H 106.43793051294342 19.63870493019033 53.91844802461091 H 0.0 **** 0.06
8581 C 17.732161871501802 105.96836430572854 44.18977680516546 C 0.0 **** -0.24
8582 H 18.464224200265633 105.64272501768698 44.928934784046625 H 0.0 **** 0.06
8583 H 16.866741658581574 105.30488946519696 44.21861748647173 H 0.0 **** 0.06
8584 H 18.18062350706805 105.93889479364967 43.19719261456043 H 0.0 **** 0.06
8585 H 17.416558033270093 106.98688245951683 44.41601936991771 H 0.0 **** 0.06
8586 C 5.866479779646115 47.650911344014716 92.47456546356541 C 0.0 **** -0.24
8587 H 6.836721522511725 47.663926122742176 92.97057983696972 H 0.0 **** 0.06
8588 H 6.007328317758134 47.482895907328384 91.40661123597224 H 0.0 **** 0.06
8589 H 5.3665621704229025 48.60714273973833 92.6297415624643 H 0.0 **** 0.06
8590 H 5.256226831317827 46.84970461352791 92.891721109807 H 0.0 **** 0.06
8591 C 33.00089646400912 10.435773114945295 45.11967252073772 C 0.0 **** -0.24
8592 H 32.98079235668871 11.352747780659126 44.532033240348916 H 0.0 **** 0.06
8593 H 34.00108499420014 10.287778353073689 45.52913954815126 H 0.0 **** 0.06
8594 H 32.74009639710164 9.59099005567278 44.48290209793745 H 0.0 **** 0.06
8595 H 32.28194955622459 10.511318282603666 45.93596414541217 H 0.0 **** 0.06
8596 C 7.510826091418409 47.57422672744908 19.524535373269643 C 0.0 **** -0.24
8597 H 7.308033237247443 47.77367649096955 20.577373260072903 H 0.0 **** 0.06
8598 H 8.557081101971647 47.29673506582914 19.402529366078284 H 0.0 **** 0.06
8599 H 7.300848146044373 48.46925681272153 18.93862485733962 H 0.0 **** 0.06
8600 H 6.874328876446583 46.75835050658483 19.181533900917586 H 0.0 **** 0.06
8601 C 39.30982464456615 19.632715842271566 67.8060824487668 C 0.0 **** -0.24
8602 H 39.468063112739955 19.680845892285376 66.7280027382443 H 0.0 **** 0.06
8603 H 39.212634859692216 20.642298918353504 68.20380195972496 H 0.0 **** 0.06
8604 H 40.15966989382301 19.13720083273668 68.27585223405976 H 0.0 **** 0.06
8605 H 38.400527764686 19.069420299583072 68.01417375537306 H 0.0 **** 0.06
8606 C 29.221944790012486 14.930295446172096 3.215847354858397 C 0.0 **** -0.24
8607 H 29.42743525846535 14.397012769433076 2.287535460020095 H 0.0 **** 0.06
8608 H 29.497765208390902 15.97802929938247 3.1019679600964736 H 0.0 **** 0.06
8609 H 29.802077264666664 14.48721794410362 4.025768573503626 H 0.0 **** 0.06
8610 H 28.15980666193272 14.857108365215424 3.4485960073033084 H 0.0 **** 0.06
8611 C 45.13110625782181 16.23806303065129 99.8116926606856 C 0.0 **** -0.24
8612 H 45.996268852502 15.866280905294474 100.36075954906374 H 0.0 **** 0.06
8613 H 45.078096282930375 15.746394708362828 98.84052228785663 H 0.0 **** 0.06
8614 H 45.22646604736073 17.313882865262542 99.67091688773883 H 0.0 **** 0.06
8615 H 44.22388446718793 16.023711966976492 100.37739840897692 H 0.0 **** 0.06
8616 C 11.520049020958766 100.37213999191248 10.251978593475258 C 0.0 **** -0.24
8617 H 10.502350151540355 100.68181847658178 10.48578165262441 H 0.0 **** 0.06
8618 H 11.956989019045636 101.06853886796515 9.53636924099986 H 0.0 **** 0.06
8619 H 11.504753623817464 99.37041213543365 9.821501995849559 H 0.0 **** 0.06
8620 H 12.1176180111526 100.36618060615805 11.164599315549367 H 0.0 **** 0.06
8621 C 12.888467796052652 82.3213339170673 41.50134181156088 C 0.0 **** -0.24
8622 H 13.573940130034316 82.64395914325911 40.717489553167866 H 0.0 **** 0.06
8623 H 11.927986652114953 82.8211430155888 41.37250632488423 H 0.0 **** 0.06
8624 H 13.304516571879503 82.57905436445591 42.475260335479334 H 0.0 **** 0.06
8625 H 12.747892299229363 81.24182086465913 41.44072136900206 H 0.0 **** 0.06
8626 C 30.234409733683293 88.79567693140837 76.94731479197915 C 0.0 **** -0.24
8627 H 29.43896393465883 88.87177526034012 77.68736319894907 H 0.0 **** 0.06
8628 H 31.1654761696783 88.51696962149626 77.4421443535883 H 0.0 **** 0.06
8629 H 30.361157644967193 89.75716705843834 76.44910555956184 H 0.0 **** 0.06
8630 H 29.97293563649552 88.03594998353512 76.20994987433201 H 0.0 **** 0.06
8631 C 64.48836915405602 83.58199766212317 0.0777026439257611 C 0.0 **** -0.24
8632 H 64.93116957750996 84.54092548672224 0.34538506970801564 H 0.0 **** 0.06
8633 H 63.43214532813309 83.58205052977468 0.3470944359822852 H 0.0 **** 0.06
8634 H 65.00063744064379 82.7836539277751 0.61398443357416 H 0.0 **** 0.06
8635 H 64.59099836366816 83.42219611134396 -0.9952938072307802 H 0.0 **** 0.06
8636 C 74.47119633565211 90.17195776326719 87.49978442456018 C 0.0 **** -0.24
8637 H 74.57577234380012 89.34699332482654 86.7947750194638 H 0.0 **** 0.06
8638 H 74.13473228338758 91.06245655037924 86.96914373265548 H 0.0 **** 0.06
8639 H 75.43465155998969 90.37063084812206 87.97037850945486 H 0.0 **** 0.06
8640 H 73.74118607086457 89.90595069988865 88.26425938329871 H 0.0 **** 0.06
8641 C 5.5928505597617 105.8007605037318 43.89877648859462 C 0.0 **** -0.24
8642 H 5.351809295828446 106.84804885904322 44.07887335827374 H 0.0 **** 0.06
8643 H 6.657385389537694 105.70441679309101 43.68484846066406 H 0.0 **** 0.06
8644 H 5.015475979625023 105.43735638091391 43.04799343863294 H 0.0 **** 0.06
8645 H 5.344846417544403 105.213397235782 44.78274653054538 H 0.0 **** 0.06
8646 C 26.838060331176223 17.007473197884543 100.38659207314849 C 0.0 **** -0.24
8647 H 26.404624630639063 16.00916943644725 100.45246189560774 H 0.0 **** 0.06
8648 H 27.924044633057406 16.93637309920925 100.45847146875022 H 0.0 **** 0.06
8649 H 26.45858035003272 17.621518933997674 101.20277492283508 H 0.0 **** 0.06
8650 H 26.564939972986167 17.459970455371465 99.43400656637581 H 0.0 **** 0.06
8651 C 102.79710688584122 71.68392456559025 48.92671130263074 C 0.0 **** -0.24
8652 H 103.40411922277612 72.2205239650018 48.19638747604656 H 0.0 **** 0.06
8653 H 101.74145702188314 71.85574859402516 48.717119882100846 H 0.0 **** 0.06
8654 H 103.0325467245314 72.04252325066932 49.92787397276253 H 0.0 **** 0.06
8655 H 103.01239548866438 70.61736235357336 48.86239513191731 H 0.0 **** 0.06
8656 C 8.388079167467543 57.19174103648288 27.477574441054617 C 0.0 **** -0.24
8657 H 8.99294268118109 56.577245435169914 26.810196716082537 H 0.0 **** 0.06
8658 H 8.6270847653192 56.94696862903726 28.5128046228563 H 0.0 **** 0.06
8659 H 7.331088960068964 56.997766044975776 27.291813386509798 H 0.0 **** 0.06
8660 H 8.60162456810865 58.24523097955159 27.294156736851797 H 0.0 **** 0.06
8661 C 97.1994954646344 69.7973330153608 70.56844672527491 C 0.0 **** -0.24
8662 H 96.57898132564894 70.48821933948406 71.14064343493439 H 0.0 **** 0.06
8663 H 96.70958277786791 68.82500090691778 70.52016088411484 H 0.0 **** 0.06
8664 H 98.1688850627349 69.69345969992446 71.05567853808218 H 0.0 **** 0.06
8665 H 97.33963987960496 70.1861151031384 69.56016962706569 H 0.0 **** 0.06
8666 C 9.202773922797888 97.17063848713201 41.69913290507488 C 0.0 **** -0.24
8667 H 8.170576141145773 97.2465757551871 42.04119427800019 H 0.0 **** 0.06
8668 H 9.404499332938798 97.95934558956245 40.97342102495867 H 0.0 **** 0.06
8669 H 9.360227851780166 96.19768742830092 41.23281194214182 H 0.0 **** 0.06
8670 H 9.875664046602566 97.27797096733546 42.549290113856934 H 0.0 **** 0.06
8671 C 77.01544573731312 18.549610051746544 94.29691474878766 C 0.0 **** -0.24
8672 H 78.0670122513725 18.830653521950868 94.22722822109344 H 0.0 **** 0.06
8673 H 76.53179724295073 18.711188343150386 93.3334458568076 H 0.0 **** 0.06
8674 H 76.5260592155342 19.159991071293966 95.05650713548778 H 0.0 **** 0.06
8675 H 76.93880369148455 17.497896413617827 94.57135434171184 H 0.0 **** 0.06
8676 C 19.77549012457783 93.50684474207965 88.2625110842271 C 0.0 **** -0.24
8677 H 20.0299037776509 94.02911623034556 87.33993918060183 H 0.0 **** 0.06
8678 H 18.812068711475234 93.01108042606386 88.14388297653518 H 0.0 **** 0.06
8679 H 19.71718397873923 94.22343725249542 89.08154664951118 H 0.0 **** 0.06
8680 H 20.541988812364437 92.76491612648648 88.48268447584626 H 0.0 **** 0.06
8681 C 98.5200418200715 11.629210190385598 69.67535440241542 C 0.0 **** -0.24
8682 H 98.92882097372032 12.43393371454368 69.06457019856065 H 0.0 **** 0.06
8683 H 98.52004476362404 10.701534013853685 69.10275713138776 H 0.0 **** 0.06
8684 H 97.49878450706561 11.877501504826283 69.96637104537307 H 0.0 **** 0.06
8685 H 99.13219401164136 11.504462627138748 70.56931497732484 H 0.0 **** 0.06
8686 C 95.40275337915705 5.542881363624815 45.80342900724993 C 0.0 **** -0.24
8687 H 95.02453508687859 5.0825612346793605 44.89035505917774 H 0.0 **** 0.06
8688 H 95.59809261999689 4.769211552018561 46.5456811817312 H 0.0 **** 0.06
8689 H 94.66060092418479 6.240467323569533 46.192258394591676 H 0.0 **** 0.06
8690 H 96.32561253827828 6.078953838032064 45.58500758057677 H 0.0 **** 0.06
8691 C 68.09500040026049 13.856813291541982 45.310482367834084 C 0.0 **** -0.24
8692 H 67.54061196315533 14.698319860049935 45.72659880303763 H 0.0 **** 0.06
8693 H 68.24089242609116 14.012136434640382 44.24107786613291 H 0.0 **** 0.06
8694 H 67.53322071239702 12.937440839416155 45.471998713263076 H 0.0 **** 0.06
8695 H 69.06436967303057 13.782545954935216 45.802304730060825 H 0.0 **** 0.06
8696 C 10.837011755751107 51.54548675940376 5.598488704876019 C 0.0 **** -0.24
8697 H 11.543014191329263 50.77326473007571 5.29171119365509 H 0.0 **** 0.06
8698 H 11.062244836687626 51.8573626555677 6.617963155805384 H 0.0 **** 0.06
8699 H 9.822695142273275 51.14680663160027 5.555538258241398 H 0.0 **** 0.06
8700 H 10.920496641955737 52.4008158993629 4.928331243225102 H 0.0 **** 0.06
8701 C 53.93395920337923 74.99523936744507 1.0171687231205908 C 0.0 **** -0.24
8702 H 53.57710190549096 75.05795258506683 2.0450581219900528 H 0.0 **** 0.06
8703 H 54.05815978638748 76.0008532668601 0.6139768822652911 H 0.0 **** 0.06
8704 H 53.2087597018093 74.44967415718949 0.41297255062411864 H 0.0 **** 0.06
8705 H 54.89033158093446 74.47300087149605 0.995943181971569 H 0.0 **** 0.06
8706 C 18.79068857139572 84.12034478986865 24.81899557099601 C 0.0 **** -0.24
8707 H 19.502152783589906 84.57616309955301 25.50741988806547 H 0.0 **** 0.06
8708 H 19.015194200025405 83.05801256929622 24.71677892413709 H 0.0 **** 0.06
8709 H 18.86620659185573 84.60386771187494 23.84505957860668 H 0.0 **** 0.06
8710 H 17.779782789199288 84.242912494302 25.20906532233238 H 0.0 **** 0.06
8711 C 84.34491627658332 92.95949301069602 57.17450346741373 C 0.0 **** -0.24
8712 H 83.29483949562973 93.24659375683014 57.23171041480188 H 0.0 **** 0.06
8713 H 84.45303013918328 92.11566942410782 56.492786611689525 H 0.0 **** 0.06
8714 H 84.69854658124598 92.67481795828658 58.16485763328461 H 0.0 **** 0.06
8715 H 84.93181902274617 93.80097046031229 56.80694183402747 H 0.0 **** 0.06
8716 C 96.2699350238473 41.00478751251984 99.91073605370823 C 0.0 **** -0.24
8717 H 96.5393532044756 40.748486647387466 100.93506822225011 H 0.0 **** 0.06
8718 H 95.66757948877348 40.20253298692282 99.48277313288604 H 0.0 **** 0.06
8719 H 97.17511233980449 41.13423568779967 99.3179773553002 H 0.0 **** 0.06
8720 H 95.69740387749272 41.93235096673493 99.9063960177388 H 0.0 **** 0.06
8721 C 62.418183287499176 0.9132164307173403 52.51334782920762 C 0.0 **** -0.24
8722 H 62.80271842881649 0.5776661154096123 51.54956544965509 H 0.0 **** 0.06
8723 H 61.652464733226225 1.6723986738235217 52.353406802308 H 0.0 **** 0.06
8724 H 63.23134669404533 1.3356601043337335 53.10206273488092 H 0.0 **** 0.06
8725 H 61.98525726201902 0.06707159397724416 53.04609789990761 H 0.0 **** 0.06
8726 C 31.42304383102602 68.2844326245353 101.80905332608711 C 0.0 **** -0.24
8727 H 31.392138388463906 67.69315128374558 102.72358538308974 H 0.0 **** 0.06
8728 H 31.546393938719888 67.62269792000046 100.95203313058802 H 0.0 **** 0.06
8729 H 32.261073890670986 68.98110723182987 101.85475773828544 H 0.0 **** 0.06
8730 H 30.492480940986823 68.84273313934722 101.70691151750206 H 0.0 **** 0.06
8731 C 21.019530290416682 13.32631654151771 63.38005676146037 C 0.0 **** -0.24
8732 H 20.87245685388774 12.247272849372225 63.355813192038056 H 0.0 **** 0.06
8733 H 20.059479533498305 13.820750644958522 63.53730273776205 H 0.0 **** 0.06
8734 H 21.447568444970983 13.655799293293274 62.43316174360575 H 0.0 **** 0.06
8735 H 21.69741225281446 13.582581315426996 64.19445478055508 H 0.0 **** 0.06
8736 C 54.24647816561384 90.5935935918103 90.0600630156149 C 0.0 **** -0.24
8737 H 54.58396805250899 90.51980425607519 91.09345179897538 H 0.0 **** 0.06
8738 H 54.958159741722426 90.08718458661787 89.40754559103759 H 0.0 **** 0.06
8739 H 54.175998375659645 91.64408193944939 89.77497072394758 H 0.0 **** 0.06
8740 H 53.266508426684936 90.12544071764967 89.96261074005434 H 0.0 **** 0.06
8741 C 77.24292299265522 89.7682350107257 25.369375495700723 C 0.0 **** -0.24
8742 H 76.43185861696418 89.63776929553529 26.085949283349322 H 0.0 **** 0.06
8743 H 77.8705359571492 90.60375099973389 25.680315573933882 H 0.0 **** 0.06
8744 H 76.82640442264753 89.97337895240982 24.383494709266955 H 0.0 **** 0.06
8745 H 77.84159636822739 88.85898914723145 25.328390166549752 H 0.0 **** 0.06
8746 C 49.136756324407635 95.13002668731937 72.89508746194932 C 0.0 **** -0.24
8747 H 48.927617155802615 94.30345047027113 73.57336485604597 H 0.0 **** 0.06
8748 H 49.33236917025421 96.03404575104418 73.47354657682247 H 0.0 **** 0.06
8749 H 48.27607174940035 95.29396190906601 72.24625540568393 H 0.0 **** 0.06
8750 H 50.01008049840462 94.89143125421357 72.2878693590674 H 0.0 **** 0.06
8751 C 33.09823910429546 99.72060304225438 85.79857711967242 C 0.0 **** -0.24
8752 H 33.013600836471454 99.92254352025596 86.86670592666047 H 0.0 **** 0.06
8753 H 32.24739297486252 99.12098579405766 85.47398389584407 H 0.0 **** 0.06
8754 H 34.021959683866925 99.17622624402217 85.60472187090551 H 0.0 **** 0.06
8755 H 33.109504261525615 100.66204570984466 85.25043895130904 H 0.0 **** 0.06
8756 C 0.7974961380761574 76.61373577964736 91.50258865319717 C 0.0 **** -0.24
8757 H -0.016240633054861675 76.02986584998416 91.93342981549188 H 0.0 **** 0.06
8758 H 1.0125830761528771 77.467343960372 92.1457677981673 H 0.0 **** 0.06
8759 H 0.505917177493072 76.96851652265946 90.51340055164167 H 0.0 **** 0.06
8760 H 1.6866662372374952 75.98962086094932 91.41691029076821 H 0.0 **** 0.06
8761 C 24.84608546055202 74.04937632168034 16.601920864383086 C 0.0 **** -0.24
8762 H 25.430588761205257 74.96726082693212 16.660943000074624 H 0.0 **** 0.06
8763 H 24.1176702890958 74.13398243414116 15.795074608455042 H 0.0 **** 0.06
8764 H 24.325744048890115 73.8885279339951 17.54582567678073 H 0.0 **** 0.06
8765 H 25.510487827234556 73.20818139779661 16.404506836853187 H 0.0 **** 0.06
8766 C 95.44149532642888 82.3797316582678 100.05276927586893 C 0.0 **** -0.24
8767 H 95.6266931137392 83.43068268418392 99.83323026586949 H 0.0 **** 0.06
8768 H 96.22636353990899 82.00286932221674 100.70920923027246 H 0.0 **** 0.06
8769 H 95.440315314991 81.80879660556818 99.12297973529122 H 0.0 **** 0.06
8770 H 94.47470335125388 82.27589186446411 100.54388455253482 H 0.0 **** 0.06
8771 C 7.392273291294913 50.19939218496846 3.8949331494524984 C 0.0 **** -0.24
8772 H 7.214542090811207 51.15272714388073 4.393724524295749 H 0.0 **** 0.06
8773 H 7.937948611922494 49.535832155850564 4.5664771039855765 H 0.0 **** 0.06
8774 H 7.979463820512819 50.36682435560846 2.9927683116355865 H 0.0 **** 0.06
8775 H 6.438322995366846 49.74553636131936 3.629655272257523 H 0.0 **** 0.06
8776 C 9.785973975907254 25.409783069493557 101.87510533740988 C 0.0 **** -0.24
8777 H 8.702928758571034 25.420393241546833 102.00481375111542 H 0.0 **** 0.06
8778 H 10.05729771091353 26.05996737857822 101.04275471947426 H 0.0 **** 0.06
8779 H 10.115809153661687 24.392446922120683 101.66422709748258 H 0.0 **** 0.06
8780 H 10.264387266538478 25.76565196756161 102.78740668279852 H 0.0 **** 0.06
8781 C 8.46362863387678 4.710985431691455 84.38691451061703 C 0.0 **** -0.24
8782 H 8.101453723723964 3.7314127578813867 84.69833448530949 H 0.0 **** 0.06
8783 H 7.729386684329057 5.471481965361889 84.65353317041587 H 0.0 **** 0.06
8784 H 8.615537801401643 4.715373763441889 83.30765224154868 H 0.0 **** 0.06
8785 H 9.407723142424317 4.925267760036974 84.8868478129425 H 0.0 **** 0.06
8786 C 11.748975535071992 34.84379855482564 38.66935641372305 C 0.0 **** -0.24
8787 H 11.565876911105875 33.76928879231423 38.67578860305724 H 0.0 **** 0.06
8788 H 11.726202401394275 35.22217819346699 39.69088414195926 H 0.0 **** 0.06
8789 H 10.977399798249891 35.339259206284396 38.080391802338 H 0.0 **** 0.06
8790 H 12.725597338467892 35.04266943198789 38.22932018504849 H 0.0 **** 0.06
8791 C 52.85976909542835 91.97730814933655 45.62294135910034 C 0.0 **** -0.24
8792 H 53.835588404215734 91.8417256442983 46.08985333334027 H 0.0 **** 0.06
8793 H 52.25043169386883 91.08866589390593 45.79024832273373 H 0.0 **** 0.06
8794 H 52.98801885801233 92.13351029201702 44.551969565057846 H 0.0 **** 0.06
8795 H 52.36604192405053 92.84468705845559 46.06045363224459 H 0.0 **** 0.06
8796 C 26.7688246771693 104.37032860583149 9.048650935573477 C 0.0 **** -0.24
8797 H 27.043543175312358 105.37188114571036 9.38001323974595 H 0.0 **** 0.06
8798 H 27.634772951073234 103.88865004132246 8.593258678164176 H 0.0 **** 0.06
8799 H 25.963999316133766 104.43794892218075 8.317254805305225 H 0.0 **** 0.06
8800 H 26.434990529223526 103.78394442634813 9.904936566690878 H 0.0 **** 0.06
8801 C 73.3597643503578 42.8327812962438 68.96858986299307 C 0.0 **** -0.24
8802 H 73.77937955164737 41.942521510115846 69.43615404503103 H 0.0 **** 0.06
8803 H 74.1328220704745 43.597673107002585 68.8852888654221 H 0.0 **** 0.06
8804 H 72.53839016436973 43.20957888953452 69.57679431530937 H 0.0 **** 0.06
8805 H 72.9897335732382 42.580357609821625 67.97457163283624 H 0.0 **** 0.06
8806 C 35.94815992456512 52.34474264159218 74.49333918791672 C 0.0 **** -0.24
8807 H 36.95717114077334 52.29734688493262 74.90229113076981 H 0.0 **** 0.06
8808 H 35.23753896806312 52.520893626691404 75.30106278477228 H 0.0 **** 0.06
8809 H 35.71174172915616 51.40097305894772 74.00027814427722 H 0.0 **** 0.06
8810 H 35.8861393174067 53.15755531612947 73.77011260997563 H 0.0 **** 0.06
8811 C 63.348142516125705 45.00033309208368 4.623680308165234 C 0.0 **** -0.24
8812 H 64.06610621005686 44.236775303513355 4.320762094870602 H 0.0 **** 0.06
8813 H 63.5608525177135 45.31374350106125 5.6453730419946595 H 0.0 **** 0.06
8814 H 62.33930153328325 44.59107311060677 4.570559267762434 H 0.0 **** 0.06
8815 H 63.42839121648589 45.85879974639147 3.9556219793709317 H 0.0 **** 0.06
8816 C 102.92687767543416 9.557298669356385 38.026733008320946 C 0.0 **** -0.24
8817 H 103.73340834141578 9.069599120306009 38.57342222619303 H 0.0 **** 0.06
8818 H 102.84663203190948 9.119322233080254 37.0305773479362 H 0.0 **** 0.06
8819 H 103.13855042814285 10.622795068161054 37.939504810593974 H 0.0 **** 0.06
8820 H 101.98800737647164 9.415593834401363 38.562156219323185 H 0.0 **** 0.06
8821 C 3.47135479035828 90.18074180276001 61.92499301895269 C 0.0 **** -0.24
8822 H 3.335078538465506 89.10165411110641 61.992832691657384 H 0.0 **** 0.06
8823 H 2.553369346548016 90.68312466892469 62.229892814909604 H 0.0 **** 0.06
8824 H 3.709271172178881 90.45227159413248 60.89551588493066 H 0.0 **** 0.06
8825 H 4.288344946580638 90.48495078937417 62.578789359601046 H 0.0 **** 0.06
8826 C 30.639503814382863 49.070931715351975 3.1431462924040545 C 0.0 **** -0.24
8827 H 31.722841435542563 49.133578097548394 3.039176353188239 H 0.0 **** 0.06
8828 H 30.165718767487675 49.47495203253422 2.2488823558909417 H 0.0 **** 0.06
8829 H 30.32519229663319 49.64658917366464 4.013201132496675 H 0.0 **** 0.06
8830 H 30.34724551434556 48.02940903228426 3.2706461648022582 H 0.0 **** 0.06
8831 C 64.15317113029062 4.934422688054326 71.64429837993481 C 0.0 **** -0.24
8832 H 65.1495025957463 5.372387477150511 71.59315040027707 H 0.0 **** 0.06
8833 H 63.46568113726349 5.523904110019885 71.03742039790467 H 0.0 **** 0.06
8834 H 63.81149204846611 4.930743493521305 72.67972950340192 H 0.0 **** 0.06
8835 H 64.18539271810573 3.9124060154940423 71.26814103370447 H 0.0 **** 0.06
8836 C 93.77936360350853 105.0640124616778 64.8760556220108 C 0.0 **** -0.24
8837 H 92.90421992234324 104.7620245780173 65.45109957373707 H 0.0 **** 0.06
8838 H 93.97510123172313 104.3252769610578 64.09917446984585 H 0.0 **** 0.06
8839 H 94.64243867158277 105.13341466843417 65.53871126503391 H 0.0 **** 0.06
8840 H 93.59545423228121 106.03514359075376 64.41694195175005 H 0.0 **** 0.06
8841 C 72.62804260194488 48.03086643563421 69.84746156746108 C 0.0 **** -0.24
8842 H 72.32736426372753 47.82441253958555 68.82004682333374 H 0.0 **** 0.06
8843 H 72.3621957821872 49.05642818442928 70.10495973294384 H 0.0 **** 0.06
8844 H 73.70665919580787 47.90060355222167 69.94170373100016 H 0.0 **** 0.06
8845 H 72.11851330652752 47.342765128129656 70.52071049253068 H 0.0 **** 0.06
8846 C 41.05786637629757 40.015949203329825 103.56756523362478 C 0.0 **** -0.24
8847 H 40.28626654890118 40.287653932162556 104.28754157266752 H 0.0 **** 0.06
8848 H 41.28891162859201 38.95521035696271 103.66511981718727 H 0.0 **** 0.06
8849 H 41.95655995807075 40.603314858966286 103.76020016321948 H 0.0 **** 0.06
8850 H 40.69991171716094 40.21952903095581 102.5585452118141 H 0.0 **** 0.06
8851 C 101.90515064759562 3.237619451059061 104.81407177580995 C 0.0 **** -0.24
8852 H 102.55179408246715 3.440546342704323 103.96001575812218 H 0.0 **** 0.06
8853 H 101.06242675294365 2.623481316981497 104.49368671982097 H 0.0 **** 0.06
8854 H 101.53540820177636 4.17785508661828 105.22227901196007 H 0.0 **** 0.06
8855 H 102.47068191424101 2.7059387157288626 105.57937870384575 H 0.0 **** 0.06
8856 C 76.04719013576715 101.41683720013432 34.23815493798618 C 0.0 **** -0.24
8857 H 76.38224999416872 102.3716844085192 33.832679388419905 H 0.0 **** 0.06
8858 H 76.48614066257241 101.26801293821994 35.225192184417665 H 0.0 **** 0.06
8859 H 76.36063281730671 100.61118591115562 33.575307045875206 H 0.0 **** 0.06
8860 H 74.96030099942303 101.4188447943613 34.31929477733223 H 0.0 **** 0.06
8861 C 76.44528315980853 47.74583747216735 74.38463640462436 C 0.0 **** -0.24
8862 H 76.43462058093958 48.31593430054238 75.31337781304688 H 0.0 **** 0.06
8863 H 76.16761495571693 48.395960168349006 73.55466497194573 H 0.0 **** 0.06
8864 H 75.73254616449186 46.92366478085938 74.45585993563282 H 0.0 **** 0.06
8865 H 77.44497908850065 47.346794422010305 74.21499746624565 H 0.0 **** 0.06
8866 C 48.361263775248716 46.45222311506541 81.44870891214961 C 0.0 **** -0.24
8867 H 47.36542210660377 46.858006926091775 81.62829621810799 H 0.0 **** 0.06
8868 H 48.40533118232469 46.030926675650676 80.44425727434027 H 0.0 **** 0.06
8869 H 48.57218759249227 45.672746885074446 82.18014353661216 H 0.0 **** 0.06
8870 H 49.09967839904971 47.24840672725185 81.542938438327 H 0.0 **** 0.06
8871 C 75.65710883864254 11.86046030604274 98.67023632960525 C 0.0 **** -0.24
8872 H 76.1906820772419 10.938894372930463 98.43518614498598 H 0.0 **** 0.06
8873 H 74.90349940843896 11.659039359822714 99.43204416020407 H 0.0 **** 0.06
8874 H 75.17338542738645 12.23910891739638 97.76989106673838 H 0.0 **** 0.06
8875 H 76.36299840127684 12.602986116202715 99.04340129249607 H 0.0 **** 0.06
8876 C 33.34063074889406 51.911937368900006 26.113909652847184 C 0.0 **** -0.24
8877 H 33.767106115308366 51.186103532139605 26.805658646682218 H 0.0 **** 0.06
8878 H 33.68328347804476 51.69248757133837 25.10179222589963 H 0.0 **** 0.06
8879 H 33.66122139335852 52.9145178123742 26.39682093733296 H 0.0 **** 0.06
8880 H 32.25289834728875 51.85398974790967 26.15008962493752 H 0.0 **** 0.06
8881 C 83.60063704454461 35.49213939607944 23.2922505221142 C 0.0 **** -0.24
8882 H 82.69777042701435 35.376793414862306 23.892232937619752 H 0.0 **** 0.06
8883 H 84.37977159564088 34.83381449000311 23.67684041807115 H 0.0 **** 0.06
8884 H 83.94065359579469 36.52645252498522 23.343032393962503 H 0.0 **** 0.06
8885 H 83.38372961164396 35.23277447227866 22.255906120122404 H 0.0 **** 0.06
8886 C 49.53675157453204 50.5596430640428 14.511265648537432 C 0.0 **** -0.24
8887 H 49.8431307246635 51.3849746348626 13.868738363767264 H 0.0 **** 0.06
8888 H 48.934466587662236 50.94408028356554 15.33403201732692 H 0.0 **** 0.06
8889 H 50.42115390974703 50.06072774819768 14.908601481080268 H 0.0 **** 0.06
8890 H 48.948022732322315 49.848374087131106 13.93174816709194 H 0.0 **** 0.06
8891 C 98.31198653058306 29.390021747963715 82.96335564533462 C 0.0 **** -0.24
8892 H 98.77854683868739 28.76580548565107 83.72473018784876 H 0.0 **** 0.06
8893 H 97.5357013235097 30.003693811635074 83.4216040861657 H 0.0 **** 0.06
8894 H 97.86771724514438 28.754859525440736 82.19606526575893 H 0.0 **** 0.06
8895 H 99.06460387263685 30.034444500657344 82.50981609060076 H 0.0 **** 0.06
8896 C 21.26651728520099 30.896210316201234 19.496448363660523 C 0.0 **** -0.24
8897 H 21.156211331873493 31.97837073409653 19.57316329632818 H 0.0 **** 0.06
8898 H 22.015113805325257 30.555770970553453 20.211711951319735 H 0.0 **** 0.06
8899 H 21.58249491257652 30.633860064485987 18.486645311532012 H 0.0 **** 0.06
8900 H 20.311762746515626 30.41812417196843 19.713936491069095 H 0.0 **** 0.06
8901 C 49.339727192894145 23.056584435025954 77.50058897691571 C 0.0 **** -0.24
8902 H 48.26079751879752 22.957313937057616 77.3804854960573 H 0.0 **** 0.06
8903 H 49.68529961105946 23.942050231764906 76.96608567220713 H 0.0 **** 0.06
8904 H 49.83339879507662 22.172608132696926 77.09665462338475 H 0.0 **** 0.06
8905 H 49.57941284664264 23.15436543858475 78.55913011601353 H 0.0 **** 0.06
8906 C 76.22224241777946 53.67989548197923 37.65800220732663 C 0.0 **** -0.24
8907 H 75.54043786392168 54.52740414832692 37.58391211488848 H 0.0 **** 0.06
8908 H 77.2511761603104 54.03891992763191 37.62667282209878 H 0.0 **** 0.06
8909 H 76.04843329916389 52.99998688500919 36.823877873636576 H 0.0 **** 0.06
8910 H 76.04814703288918 53.154775689353976 38.59717881909478 H 0.0 **** 0.06
8911 C 31.535151040921505 101.33563639666733 38.10600453894408 C 0.0 **** -0.24
8912 H 30.895289062015138 101.79740088305076 38.85882521716758 H 0.0 **** 0.06
8913 H 32.46229958412828 101.90279221823191 38.020719250173855 H 0.0 **** 0.06
8914 H 31.02043320285162 101.33223361417356 37.14571571292229 H 0.0 **** 0.06
8915 H 31.760914810253787 100.31097195941359 38.401101495067316 H 0.0 **** 0.06
8916 C 93.26188585115575 34.04766306174204 6.254589393467484 C 0.0 **** -0.24
8917 H 93.86623783151754 34.610761577359966 5.543366182763721 H 0.0 **** 0.06
8918 H 93.80210004098453 33.15296534641179 6.56209594310039 H 0.0 **** 0.06
8919 H 92.32116713019732 33.761572771799564 5.784004280989818 H 0.0 **** 0.06
8920 H 93.05682131521074 34.66770676672119 7.127485185305066 H 0.0 **** 0.06
8921 C 49.02773786005842 20.682717426567294 100.80646158295066 C 0.0 **** -0.24
8922 H 50.03877130223052 20.751118173150914 101.20816598918476 H 0.0 **** 0.06
8923 H 49.02387069343021 20.01575315407024 99.94406988929046 H 0.0 **** 0.06
8924 H 48.69097696502783 21.673816640799828 100.50166135856689 H 0.0 **** 0.06
8925 H 48.359117139666026 20.290789619505105 101.57261666709667 H 0.0 **** 0.06
8926 C 46.151785525645096 1.6043647430063146 33.41198288467963 C 0.0 **** -0.24
8927 H 45.85510626290636 0.6921778208385039 32.89430041329307 H 0.0 **** 0.06
8928 H 45.50909994536744 1.7559036980735252 34.278730171067 H 0.0 **** 0.06
8929 H 46.05536145813528 2.4541467149030742 32.73509162600476 H 0.0 **** 0.06
8930 H 47.187926616972845 1.5157412418966878 33.73766093711612 H 0.0 **** 0.06
8931 C 1.2089076470711007 75.09479187944186 0.977694875244083 C 0.0 **** -0.24
8932 H 2.042441437055544 74.400721506649 1.0901870742535493 H 0.0 **** 0.06
8933 H 1.4898425883199025 76.06725406317213 1.3812447949176487 H 0.0 **** 0.06
8934 H 0.3438179494847873 74.71272899038496 1.5193215485238625 H 0.0 **** 0.06
8935 H 0.9614034389534538 75.19596020664846 -0.07886857802333225 H 0.0 **** 0.06
8936 C 98.20636347610179 64.68572829669438 94.05798054507261 C 0.0 **** -0.24
8937 H 98.8802155909325 65.39391820544131 93.57748599436438 H 0.0 **** 0.06
8938 H 98.0500754300061 63.82906085613905 93.40185656098238 H 0.0 **** 0.06
8939 H 97.25044900297912 65.17071584717883 94.25618576943504 H 0.0 **** 0.06
8940 H 98.64346271610867 64.34888182215536 94.99821638544957 H 0.0 **** 0.06
8941 C 63.05607920197414 55.36121980301087 55.42687227336205 C 0.0 **** -0.24
8942 H 63.44099531657959 54.419701487323266 55.81856290418233 H 0.0 **** 0.06
8943 H 63.55627669281007 55.59563240378554 54.487190459046474 H 0.0 **** 0.06
8944 H 63.24362229966334 56.15773253165358 56.14695266312822 H 0.0 **** 0.06
8945 H 61.983074143356475 55.27187674408149 55.25571826989608 H 0.0 **** 0.06
8946 C 53.63833047214695 45.43297743725434 58.337982376199875 C 0.0 **** -0.24
8947 H 53.08662156225398 45.961242110696055 57.560009081157204 H 0.0 **** 0.06
8948 H 52.941178787219314 44.8731650417379 58.96236236517268 H 0.0 **** 0.06
8949 H 54.17985429786677 46.15335077385747 58.95170457992867 H 0.0 **** 0.06
8950 H 54.34607339990794 44.74464511643249 57.876591817509734 H 0.0 **** 0.06
8951 C 105.04644838695393 54.612455823949574 99.99147652169674 C 0.0 **** -0.24
8952 H 104.13789778025037 54.08902175197141 100.28961287509895 H 0.0 **** 0.06
8953 H 105.23307141214121 54.439994212641174 98.9318706935444 H 0.0 **** 0.06
8954 H 105.88810073923261 54.24060022461518 100.57467149521354 H 0.0 **** 0.06
8955 H 104.92429517675623 55.68051234605109 100.16965209336682 H 0.0 **** 0.06
8956 C 42.459991158273084 1.9035911734663653 10.367934760685955 C 0.0 **** -0.24
8957 H 42.279748532181145 2.6147963164457106 11.173598781860164 H 0.0 **** 0.06
8958 H 42.8457960254747 2.4323440831455745 9.495884470399346 H 0.0 **** 0.06
8959 H 41.52532964722229 1.4060020165504046 10.106987156363004 H 0.0 **** 0.06
8960 H 43.1874613201266 1.161003401395992 10.694722522286838 H 0.0 **** 0.06
8961 C 95.03321467650949 22.016640956771568 92.35341980274904 C 0.0 **** -0.24
8962 H 95.85520339994002 21.72278397698986 93.00639632204894 H 0.0 **** 0.06
8963 H 95.36964274250056 22.001118572312663 91.3169358897913 H 0.0 **** 0.06
8964 H 94.70426263168957 23.023419032201645 92.61393513615184 H 0.0 **** 0.06
8965 H 94.20412621296146 21.320397818515943 92.47713515814377 H 0.0 **** 0.06
8966 C 106.27271562633015 95.97846230742309 57.56986994551993 C 0.0 **** -0.24
8967 H 105.82067349415533 96.95263476685163 57.75877648446295 H 0.0 **** 0.06
8968 H 107.08416763522087 96.08910661458123 56.84950666793391 H 0.0 **** 0.06
8969 H 105.51995632263203 95.30039434263767 57.168486155597144 H 0.0 **** 0.06
8970 H 106.66695800708996 95.57384070684304 58.50188711219403 H 0.0 **** 0.06
8971 C 101.60840087920698 55.43338062804537 98.83084795283534 C 0.0 **** -0.24
8972 H 101.2715870060343 55.169980971655406 97.82810134810057 H 0.0 **** 0.06
8973 H 101.1657729101768 56.38640858836902 99.12371478322211 H 0.0 **** 0.06
8974 H 102.69502633100367 55.51905858990929 98.83833954099822 H 0.0 **** 0.06
8975 H 101.30121726961319 54.65807436224796 99.53323613902057 H 0.0 **** 0.06
8976 C 40.33235941353749 64.66947122988238 72.66273204030881 C 0.0 **** -0.24
8977 H 40.6200284135125 64.14399642116376 73.5722810436749 H 0.0 **** 0.06
8978 H 39.24957717111394 64.7986659158284 72.64426266240167 H 0.0 **** 0.06
8979 H 40.64436178205577 64.08953972875041 71.79424446085352 H 0.0 **** 0.06
8980 H 40.81549665673461 65.64704332885957 72.63906828987689 H 0.0 **** 0.06
8981 C 88.584979956536 37.240706071345585 83.50749458549416 C 0.0 **** -0.24
8982 H 89.2058664606741 38.10715845028463 83.2811631869709 H 0.0 **** 0.06
8983 H 89.21282516341891 36.430899071057496 83.88083060505687 H 0.0 **** 0.06
8984 H 88.07190780063928 36.91544296125542 82.60323493479427 H 0.0 **** 0.06
8985 H 87.85009499478839 37.50987778835059 84.2667728144364 H 0.0 **** 0.06
8986 C 95.79414674164536 8.4266953493063 72.09933287338573 C 0.0 **** -0.24
8987 H 96.66268802182628 8.373095893161036 71.4426938062951 H 0.0 **** 0.06
8988 H 95.51854939503517 7.4207406812237195 72.41856021237169 H 0.0 **** 0.06
8989 H 94.9607594729132 8.879845264130552 71.56272360243439 H 0.0 **** 0.06
8990 H 96.03653532563129 9.032136586279506 72.97281635839538 H 0.0 **** 0.06
8991 C 72.65021308336745 20.06532856161602 21.514353701730187 C 0.0 **** -0.24
8992 H 71.73408418395192 20.4538978921854 21.959133897449362 H 0.0 **** 0.06
8993 H 73.08475035391857 19.313939739220494 22.173617611192412 H 0.0 **** 0.06
8994 H 73.35994013246508 20.881141017363397 21.374542068952167 H 0.0 **** 0.06
8995 H 72.4212113481554 19.613585945799276 20.54929281752213 H 0.0 **** 0.06
8996 C 63.58301336339977 76.37313449292236 50.78697751984589 C 0.0 **** -0.24
8997 H 63.19920046801994 75.52156715873562 51.34908112193557 H 0.0 **** 0.06
8998 H 64.61210049714137 76.57227015234187 51.086881489989025 H 0.0 **** 0.06
8999 H 62.96845558625412 77.24948713307768 50.99134352836168 H 0.0 **** 0.06
9000 H 63.551956121299355 76.1478442867647 49.72050833470689 H 0.0 **** 0.06
9001 C 81.14491747956163 8.730492082358138 80.34779494318832 C 0.0 **** -0.24
9002 H 80.13017123871737 8.519788219821919 80.6851651376141 H 0.0 **** 0.06
9003 H 81.1835397578323 8.678239472942723 79.25929563889134 H 0.0 **** 0.06
9004 H 81.82946727163164 7.996059419091667 80.77223452039722 H 0.0 **** 0.06
9005 H 81.43619599560037 9.729144582755653 80.6739218134679 H 0.0 **** 0.06
9006 C 56.43316163784834 55.27411777079864 99.94255930112391 C 0.0 **** -0.24
9007 H 57.134942860778324 55.563636199873024 100.72459375823934 H 0.0 **** 0.06
9008 H 55.870327595803985 56.15024938500819 99.61668347013543 H 0.0 **** 0.06
9009 H 55.74405254831299 54.52433677276101 100.3317518548887 H 0.0 **** 0.06
9010 H 56.982035839537616 54.85937128836358 99.09749413113204 H 0.0 **** 0.06
9011 C 77.18226336167263 41.739692235414765 66.60086072213971 C 0.0 **** -0.24
9012 H 76.72525076921062 41.55622774594326 67.57287149516975 H 0.0 **** 0.06
9013 H 78.09263658508169 41.14692358387745 66.51015989560892 H 0.0 **** 0.06
9014 H 77.42589314694422 42.797434069017925 66.50729045767599 H 0.0 **** 0.06
9015 H 76.48486203063248 41.455984228942896 65.812123822091 H 0.0 **** 0.06
9016 C 99.71968276140797 99.493332260834 59.0490011441308 C 0.0 **** -0.24
9017 H 99.79613129407727 100.2452350786947 58.264186874958995 H 0.0 **** 0.06
9018 H 100.28261925023797 99.82172128693796 59.92222495587658 H 0.0 **** 0.06
9019 H 100.12604189561723 98.54865599647152 58.687836761535635 H 0.0 **** 0.06
9020 H 98.67230897148438 99.35821173777171 59.32144078660706 H 0.0 **** 0.06
9021 C 80.92995893004202 51.15940259303748 91.76351868125167 C 0.0 **** -0.24
9022 H 81.77917787750773 50.954014235222665 92.4151401225815 H 0.0 **** 0.06
9023 H 80.06292733401305 51.42551843290495 92.36884943319097 H 0.0 **** 0.06
9024 H 80.7022238661384 50.272260088143824 91.17331398487968 H 0.0 **** 0.06
9025 H 81.17550664250885 51.985817615878474 91.09677118435448 H 0.0 **** 0.06
9026 C 43.059990494267616 104.0865177143911 92.72070284245578 C 0.0 **** -0.24
9027 H 43.03622585394108 103.46349863195036 93.61508150743856 H 0.0 **** 0.06
9028 H 42.42785464538355 103.6416332011047 91.95142213861752 H 0.0 **** 0.06
9029 H 44.08387879620678 104.15721214605172 92.35360782776793 H 0.0 **** 0.06
9030 H 42.69112424120794 105.08402886399574 92.9630702922294 H 0.0 **** 0.06
9031 C 15.348288831704224 100.29413854590301 65.72027456436012 C 0.0 **** -0.24
9032 H 16.014025928735435 100.91396359640505 66.32115287765411 H 0.0 **** 0.06
9033 H 15.674937714541002 99.25472366660509 65.77187881777648 H 0.0 **** 0.06
9034 H 15.37353771879691 100.63273274558074 64.68439176225422 H 0.0 **** 0.06
9035 H 14.331252310470973 100.37511856839713 66.10447591452352 H 0.0 **** 0.06
9036 C 102.71619719193714 87.62739565503213 35.01904471283794 C 0.0 **** -0.24
9037 H 103.03212109709656 86.5841029061171 35.02659744160263 H 0.0 **** 0.06
9038 H 103.55586290221109 88.25829864218912 34.7273417370927 H 0.0 **** 0.06
9039 H 102.37717674242779 87.91067800477829 36.01562384365192 H 0.0 **** 0.06
9040 H 101.90101479592232 87.75380204688106 34.30795069447561 H 0.0 **** 0.06
9041 C 37.91525668706612 82.11276069903238 89.4628766910001 C 0.0 **** -0.24
9042 H 38.740841030862896 81.84941553249215 90.12390884804802 H 0.0 **** 0.06
9043 H 38.22654662943725 81.98797539708451 88.42549154928673 H 0.0 **** 0.06
9044 H 37.62949402933654 83.15012855130007 89.63380445185143 H 0.0 **** 0.06
9045 H 37.06478146734179 81.46228398472593 89.66805873609204 H 0.0 **** 0.06
9046 C 97.27732080274566 13.644574684926141 20.24455689802474 C 0.0 **** -0.24
9047 H 98.34729767425678 13.554362364423397 20.431369448562464 H 0.0 **** 0.06
9048 H 96.7475088254425 13.704335769952436 21.195234859674514 H 0.0 **** 0.06
9049 H 96.93183852302494 12.772973121405968 19.689196306034503 H 0.0 **** 0.06
9050 H 97.08544158045521 14.546258798822237 19.663429713046753 H 0.0 **** 0.06
9051 C 25.81994018254204 12.582491100922738 67.62441720791139 C 0.0 **** -0.24
9052 H 24.841741056680178 12.158307917091719 67.84858401139533 H 0.0 **** 0.06
9053 H 26.570497961403476 12.121583774529853 68.26736993795092 H 0.0 **** 0.06
9054 H 25.800033865222076 13.657554767509708 67.80123781566672 H 0.0 **** 0.06
9055 H 26.06840133918564 12.390251680295876 66.58030428251524 H 0.0 **** 0.06
9056 C 30.990175884251727 45.728037102358826 20.621459090447093 C 0.0 **** -0.24
9057 H 30.574826602113177 44.92033229663684 20.018553922566383 H 0.0 **** 0.06
9058 H 30.351405504389447 45.89954427813194 21.48825689211002 H 0.0 **** 0.06
9059 H 31.043991834677 46.63716175819752 20.0232911627398 H 0.0 **** 0.06
9060 H 31.990253314508436 45.45449529826874 20.956489957384292 H 0.0 **** 0.06
9061 C 86.81013105398489 104.85025125582318 37.676068890839815 C 0.0 **** -0.24
9062 H 86.84775684139754 104.73576957689917 38.759653211057525 H 0.0 **** 0.06
9063 H 85.782271161577 105.03877380111624 37.3654452952137 H 0.0 **** 0.06
9064 H 87.17355654748428 103.93847567736557 37.2012742546483 H 0.0 **** 0.06
9065 H 87.43930539055538 105.68998499932626 37.37854129970242 H 0.0 **** 0.06
9066 C 29.608936793394236 81.65054449418278 7.7767947685561865 C 0.0 **** -0.24
9067 H 29.861422941536347 80.89330065166675 8.519062386362506 H 0.0 **** 0.06
9068 H 30.364123217628077 81.6531112192902 6.990966815568328 H 0.0 **** 0.06
9069 H 29.57627511450579 82.63032400204338 8.253422550864826 H 0.0 **** 0.06
9070 H 28.634297330229685 81.42359149556597 7.344388738942612 H 0.0 **** 0.06
9071 C 92.3720851327912 9.009182286414841 12.797583924679031 C 0.0 **** -0.24
9072 H 92.6396418999412 9.8939370207394 12.21977586828936 H 0.0 **** 0.06
9073 H 91.28949333388168 8.973718855889445 12.92659218926542 H 0.0 **** 0.06
9074 H 92.85316535766036 9.053641643405342 13.774474334560153 H 0.0 **** 0.06
9075 H 92.70481189173728 8.115681214608287 12.268837794829949 H 0.0 **** 0.06
9076 C 91.52642007952818 52.244777311941476 71.64640780635588 C 0.0 **** -0.24
9077 H 91.07440316807184 52.02327824289404 70.67921877870887 H 0.0 **** 0.06
9078 H 92.39145723161303 51.59932750310489 71.79892331214197 H 0.0 **** 0.06
9079 H 90.79730805188251 52.06805153029825 72.43683321952031 H 0.0 **** 0.06
9080 H 91.84155839939784 53.287661194625485 71.66944524972826 H 0.0 **** 0.06
9081 C 69.12569714153953 62.09839861766815 89.6110486106416 C 0.0 **** -0.24
9082 H 69.51996656004695 61.84758453800063 90.59605046472262 H 0.0 **** 0.06
9083 H 69.65932142453826 62.96358655633637 89.2162781573137 H 0.0 **** 0.06
9084 H 68.06475511563738 62.331276708224124 89.69318538451165 H 0.0 **** 0.06
9085 H 69.26099391429427 61.250421727133215 88.93932790558836 H 0.0 **** 0.06
9086 C 14.72133519525579 37.922306477440685 31.995164229957574 C 0.0 **** -0.24
9087 H 13.787097613137192 37.58080015441038 31.55092305930156 H 0.0 **** 0.06
9088 H 14.551942798232986 38.18541385475635 33.03935407762526 H 0.0 **** 0.06
9089 H 15.08199796424384 38.797154196924055 31.45380615938867 H 0.0 **** 0.06
9090 H 15.464085759958536 37.12713286722416 31.93600168404233 H 0.0 **** 0.06
9091 C 16.1129124952364 58.58042636864042 94.89559229871722 C 0.0 **** -0.24
9092 H 15.88385562322901 57.72574508187296 94.25868604387202 H 0.0 **** 0.06
9093 H 15.278471944148379 58.76076019026476 95.57462725326965 H 0.0 **** 0.06
9094 H 16.275270524676728 59.4619641510547 94.2760524059685 H 0.0 **** 0.06
9095 H 17.013267008848914 58.3709174635398 95.47309508916018 H 0.0 **** 0.06
9096 C 53.045116342607855 102.17754104628685 15.39093795052591 C 0.0 **** -0.24
9097 H 52.499748638474784 101.24156592846603 15.507870877699219 H 0.0 **** 0.06
9098 H 52.45888095287228 102.99396939819655 15.813749448080529 H 0.0 **** 0.06
9099 H 53.22090206215313 102.36589926159624 14.331734344267744 H 0.0 **** 0.06
9100 H 54.00066131409545 102.10781061545967 15.91068229144497 H 0.0 **** 0.06
9101 C 51.66732820042597 21.885269887879048 35.419054559506264 C 0.0 **** -0.24
9102 H 51.73952490886393 20.902862609593654 34.95140904762613 H 0.0 **** 0.06
9103 H 52.0548117830204 22.641163427369577 34.736550272409374 H 0.0 **** 0.06
9104 H 52.25190087881771 21.89243874486081 36.33983041041142 H 0.0 **** 0.06
9105 H 50.62470631883036 22.10197529726088 35.649039407129095 H 0.0 **** 0.06
9106 C 26.125711098956458 58.08973875091013 10.746755627808781 C 0.0 **** -0.24
9107 H 25.129490074314845 57.71072347270413 10.520066924247402 H 0.0 **** 0.06
9108 H 26.412699099918342 57.776826932386626 11.750806822647675 H 0.0 **** 0.06
9109 H 26.119734406320447 59.17889430415326 10.692384494173425 H 0.0 **** 0.06
9110 H 26.838124087871734 57.69354446139903 10.023433772223953 H 0.0 **** 0.06
9111 C 30.906187971370194 45.639181339123006 50.27201287894193 C 0.0 **** -0.24
9112 H 30.00277825638139 46.19415820419105 50.52427714272919 H 0.0 **** 0.06
9113 H 31.41497756141147 45.33840038520776 51.18799960936339 H 0.0 **** 0.06
9114 H 31.567089140758284 46.27061381877483 49.679241153300794 H 0.0 **** 0.06
9115 H 30.638825818186504 44.752211631977495 49.69635413194946 H 0.0 **** 0.06
9116 C 99.49977810561893 16.154370322047185 5.202027636964033 C 0.0 **** -0.24
9117 H 100.26998581405519 15.548302132393047 4.7239144809324785 H 0.0 **** 0.06
9118 H 98.5855425591019 15.568600591178523 5.298856896837719 H 0.0 **** 0.06
9119 H 99.3034111732187 17.037400267522003 4.593733414807332 H 0.0 **** 0.06
9120 H 99.84116346536291 16.46242964183503 6.190398118595795 H 0.0 **** 0.06
9121 C 105.29751155616006 92.61066014816907 82.49367403199747 C 0.0 **** -0.24
9122 H 104.54452755791367 92.97974202854743 81.79808124665044 H 0.0 **** 0.06
9123 H 104.93089733960853 92.71353830638702 83.5152981487002 H 0.0 **** 0.06
9124 H 106.21387893202944 93.18991407296244 82.37651400800354 H 0.0 **** 0.06
9125 H 105.5025812697397 91.56105222513003 82.28500134663574 H 0.0 **** 0.06
9126 C 30.981212192217527 104.87117128770893 103.40831710168709 C 0.0 **** -0.24
9127 H 31.310059275114327 105.75699339289179 102.86567314511512 H 0.0 **** 0.06
9128 H 30.975439330824997 105.08291084726653 104.47820532289833 H 0.0 **** 0.06
9129 H 31.663597142451977 104.04577657244414 103.20451801576272 H 0.0 **** 0.06
9130 H 29.976186344263795 104.59967820076588 103.08603735503036 H 0.0 **** 0.06
9131 C 101.29133570398523 11.553431530267545 83.95846174025922 C 0.0 **** -0.24
9132 H 101.4853626508447 10.585729981559354 84.42110627462617 H 0.0 **** 0.06
9133 H 101.70707206171298 11.563660921601354 82.95050371267993 H 0.0 **** 0.06
9134 H 101.75929708800945 12.338994494494358 84.55185510442888 H 0.0 **** 0.06
9135 H 100.21647116852677 11.72454354084934 83.9108113321428 H 0.0 **** 0.06
9136 C 86.89446773611783 14.207973115922954 66.44734109711959 C 0.0 **** -0.24
9137 H 86.2903551635651 15.034010569903671 66.07161666621951 H 0.0 **** 0.06
9138 H 86.39678847125354 13.263541286258402 66.22483351579687 H 0.0 **** 0.06
9139 H 87.01729605260279 14.30966369603317 67.52555764872398 H 0.0 **** 0.06
9140 H 87.8726938009525 14.22628343151024 65.96642091029221 H 0.0 **** 0.06
9141 C 79.96653589861779 2.0326007659059258 75.74037488731187 C 0.0 **** -0.24
9142 H 80.02742340710165 2.312222629055725 74.6885345764039 H 0.0 **** 0.06
9143 H 79.25978268856773 1.2118767590161212 75.85834378709538 H 0.0 **** 0.06
9144 H 79.63009313041294 2.889882930841196 76.32501011083536 H 0.0 **** 0.06
9145 H 80.95020108679307 1.7188740982570891 76.08998622812473 H 0.0 **** 0.06
9146 C 58.07018239653161 23.310630820425658 46.775665935563325 C 0.0 **** -0.24
9147 H 58.54845558185008 24.232182389964564 46.44519788697903 H 0.0 **** 0.06
9148 H 58.54900505413826 22.95941820074475 47.6895145274799 H 0.0 **** 0.06
9149 H 58.16754423692748 22.552385426061363 45.99942612159509 H 0.0 **** 0.06
9150 H 57.014130300690454 23.499134493870955 46.96820692259422 H 0.0 **** 0.06
9151 C 2.2982732603751623 95.69852163478737 87.56144739463397 C 0.0 **** -0.24
9152 H 3.326974138258363 95.86408510563695 87.23974567644441 H 0.0 **** 0.06
9153 H 1.7376861191812703 96.62957467163366 87.4790702265457 H 0.0 **** 0.06
9154 H 2.291681808870006 95.36046415457452 88.59718208686363 H 0.0 **** 0.06
9155 H 1.8377956241182272 94.93948292412955 86.92762851472165 H 0.0 **** 0.06
9156 C 57.83273536231006 76.18232689350977 103.94748263751742 C 0.0 **** -0.24
9157 H 58.700281081172626 76.0063818058445 103.31119616492367 H 0.0 **** 0.06
9158 H 58.093356174915094 75.9712506918306 104.98464527668497 H 0.0 **** 0.06
9159 H 57.0163741682895 75.5304135315507 103.63725843308862 H 0.0 **** 0.06
9160 H 57.521074143836515 77.22321519945248 103.85536004980526 H 0.0 **** 0.06
9161 C 5.723451651186178 72.21849160461228 64.74739179110188 C 0.0 **** -0.24
9162 H 6.298957969148878 71.85088207221206 63.898151311807894 H 0.0 **** 0.06
9163 H 4.659381989027926 72.08933807287411 64.54787523651024 H 0.0 **** 0.06
9164 H 5.939695993855414 73.27548774063342 64.90226352733103 H 0.0 **** 0.06
9165 H 5.996394484846283 71.65766179050894 65.64077233313478 H 0.0 **** 0.06
9166 C 24.66066743890707 7.78093263430722 28.344789861918176 C 0.0 **** -0.24
9167 H 23.60862488508586 7.578627748879896 28.545426099202665 H 0.0 **** 0.06
9168 H 25.055546778815952 8.44546811372274 29.11360624728733 H 0.0 **** 0.06
9169 H 24.759736968788502 8.254370957000674 27.368211616247443 H 0.0 **** 0.06
9170 H 25.21772470441121 6.843970678519895 28.35241949351905 H 0.0 **** 0.06
9171 C 78.16092467757096 85.37474215586609 75.12390617773198 C 0.0 **** -0.24
9172 H 77.3677741763185 85.99086545915951 75.54871921136589 H 0.0 **** 0.06
9173 H 78.29232813451102 85.62922263517527 74.07181323394018 H 0.0 **** 0.06
9174 H 77.89113111352117 84.32322014668684 75.21355288195085 H 0.0 **** 0.06
9175 H 79.09040500843324 85.55949999276132 75.66165567700565 H 0.0 **** 0.06
9176 C 75.93049767271447 50.78643126567952 42.13958775925764 C 0.0 **** -0.24
9177 H 76.7961766604113 50.12862034677186 42.060667523569464 H 0.0 **** 0.06
9178 H 75.09544048958239 50.35419704753867 41.58662585077022 H 0.0 **** 0.06
9179 H 76.17750282170985 51.761809358023314 41.72084831419875 H 0.0 **** 0.06
9180 H 75.653328710783 50.89943111843051 43.1872074712071 H 0.0 **** 0.06
9181 C 34.31753697006755 106.2016419334646 96.8174869388481 C 0.0 **** -0.24
9182 H 33.44784295388081 105.66685693538892 97.20050270297872 H 0.0 **** 0.06
9183 H 35.146271125443434 105.50479169500366 96.69305566438675 H 0.0 **** 0.06
9184 H 34.60204944724748 106.98432413519356 97.5214194446836 H 0.0 **** 0.06
9185 H 34.073002571274 106.65078361711406 95.85499362738011 H 0.0 **** 0.06
9186 C 73.24714453780058 42.02230733301258 59.312623513415474 C 0.0 **** -0.24
9187 H 72.2947183189126 42.436340411897106 58.98105054738315 H 0.0 **** 0.06
9188 H 73.12970071290368 40.95820840215936 59.51540438028624 H 0.0 **** 0.06
9189 H 73.5686150469325 42.53269140207033 60.22104553287204 H 0.0 **** 0.06
9190 H 73.99579801974505 42.1642077629096 58.532878065785894 H 0.0 **** 0.06
9191 C 18.17638701356293 42.738732424906345 26.9040016275611 C 0.0 **** -0.24
9192 H 19.028789668726887 43.17272185212573 26.382620253992002 H 0.0 **** 0.06
9193 H 17.53108087609715 42.23123222590348 26.185266379196264 H 0.0 **** 0.06
9194 H 17.614446514071858 43.52877267891631 27.40159277834391 H 0.0 **** 0.06
9195 H 18.529886232908297 42.02231746396771 27.64474419964766 H 0.0 **** 0.06
9196 C 38.76306447732753 68.47737410065736 7.359104693070947 C 0.0 **** -0.24
9197 H 39.6126484250083 68.97755022031055 6.895163283650049 H 0.0 **** 0.06
9198 H 38.00044141035693 68.28236291071852 6.604099744534722 H 0.0 **** 0.06
9199 H 38.347433150937434 69.11476036821918 8.13962122651202 H 0.0 **** 0.06
9200 H 39.090821545227385 67.5340933021671 7.795911678318532 H 0.0 **** 0.06
9201 C 90.95537053309751 9.038693763680044 102.71974803874487 C 0.0 **** -0.24
9202 H 90.16555301173885 9.788406094209193 102.76570896367058 H 0.0 **** 0.06
9203 H 91.83115357480618 9.462926580224945 102.22893923946718 H 0.0 **** 0.06
9204 H 90.60347770675472 8.17604073276948 102.15331717060414 H 0.0 **** 0.06
9205 H 91.2191919298088 8.727175890934575 103.73030955721192 H 0.0 **** 0.06
9206 C 16.58268437054386 49.06173553017891 12.72212300915345 C 0.0 **** -0.24
9207 H 16.117327493244034 48.08901380005477 12.563768638240902 H 0.0 **** 0.06
9208 H 16.43476264326941 49.68397165904804 11.838529127432935 H 0.0 **** 0.06
9209 H 17.65048841272076 48.92915647225465 12.899066711303362 H 0.0 **** 0.06
9210 H 16.12958386729042 49.54577035071901 13.586958778184226 H 0.0 **** 0.06
9211 C 95.8422088085919 106.59724240344623 99.22095803780627 C 0.0 **** -0.24
9212 H 95.55850022440515 106.17627024748893 100.18580186703706 H 0.0 **** 0.06
9213 H 96.12974203529836 107.64032736935833 99.35049211078929 H 0.0 **** 0.06
9214 H 94.99709222385897 106.53544061980196 98.53526480444678 H 0.0 **** 0.06
9215 H 96.68311427901494 106.03570881802226 98.81287009406974 H 0.0 **** 0.06
9216 C 22.24678889344608 96.89256295502149 17.828691961812353 C 0.0 **** -0.24
9217 H 21.25578052635717 96.6850480874103 18.232484864473747 H 0.0 **** 0.06
9218 H 23.004445154193263 96.5032775390152 18.509055526474583 H 0.0 **** 0.06
9219 H 22.375168270111146 97.96969026323613 17.717911800460968 H 0.0 **** 0.06
9220 H 22.350220470743636 96.41282481234798 16.855843107798904 H 0.0 **** 0.06
9221 C 99.33925853740162 24.042704589100623 36.26756186419959 C 0.0 **** -0.24
9222 H 99.38270428826601 24.946055771297296 35.65947239935008 H 0.0 **** 0.06
9223 H 100.27797722628904 23.92383563124318 36.80890843893599 H 0.0 **** 0.06
9224 H 99.17803515299946 23.178884725126267 35.62424710854856 H 0.0 **** 0.06
9225 H 98.5174752331804 24.12442224378063 36.9801937562317 H 0.0 **** 0.06
9226 C 91.99544502958003 63.55672826523116 49.279375604206166 C 0.0 **** -0.24
9227 H 93.0382498711698 63.86748977575692 49.21717397138169 H 0.0 **** 0.06
9228 H 91.94332651656453 62.46933143622746 49.3398035468075 H 0.0 **** 0.06
9229 H 91.46021059845009 63.89858120608611 48.39425339966936 H 0.0 **** 0.06
9230 H 91.54023757395458 63.99175471454808 50.16999726356938 H 0.0 **** 0.06
9231 C 93.17282925773605 89.46159323932253 92.15333083287773 C 0.0 **** -0.24
9232 H 94.20747080282413 89.59166346429768 91.83545926646629 H 0.0 **** 0.06
9233 H 93.11447703707336 88.64674365632649 92.87561604506705 H 0.0 **** 0.06
9234 H 92.5540610522813 89.22552970119573 91.28750658510914 H 0.0 **** 0.06
9235 H 92.81654906042715 90.38220058944057 92.6153776137691 H 0.0 **** 0.06
9236 C 105.49598709012751 50.7822392282456 91.00059645909096 C 0.0 **** -0.24
9237 H 104.50362941817004 50.38726152228281 90.78163847551099 H 0.0 **** 0.06
9238 H 105.49603063681694 51.233489160104796 91.99289339677114 H 0.0 **** 0.06
9239 H 105.7593112026832 51.535624485257046 90.25796614153427 H 0.0 **** 0.06
9240 H 106.22439665289696 49.97204530931742 90.96927515599236 H 0.0 **** 0.06
9241 C 38.49765100089095 95.16819954870334 67.7352924135541 C 0.0 **** -0.24
9242 H 39.254781561508686 94.47102884347288 68.09366095525601 H 0.0 **** 0.06
9243 H 38.73608286526842 95.47107219107295 66.7155953370403 H 0.0 **** 0.06
9244 H 38.47965570402544 96.04753229280038 68.38085023642145 H 0.0 **** 0.06
9245 H 37.52109491538876 94.68458106280661 67.7527872078206 H 0.0 **** 0.06
9246 C 9.411310199612956 7.975194180715704 98.98572197197802 C 0.0 **** -0.24
9247 H 9.747313788495035 8.361024948023427 99.94784248626208 H 0.0 **** 0.06
9248 H 8.391161741528833 8.309085571543719 98.7964751353292 H 0.0 **** 0.06
9249 H 9.44037187220701 6.885426041688277 99.00113482562574 H 0.0 **** 0.06
9250 H 10.06690516354675 8.344701995196786 98.19676572645216 H 0.0 **** 0.06
9251 C 60.40542611836009 74.44890364949617 95.09998084935964 C 0.0 **** -0.24
9252 H 60.82245514876955 74.84076925777322 96.02689873847882 H 0.0 **** 0.06
9253 H 59.98633130522062 75.26667088770478 94.51409351544831 H 0.0 **** 0.06
9254 H 59.62110362599131 73.72792388228453 95.331458993842 H 0.0 **** 0.06
9255 H 61.19189281502386 73.95781915256077 94.52718520977513 H 0.0 **** 0.06
9256 C 77.84458506688054 92.08675117239605 38.998209343075786 C 0.0 **** -0.24
9257 H 77.34790529658741 91.9823452263643 38.03353669638713 H 0.0 **** 0.06
9258 H 78.90587274410314 91.86603059613196 38.88529084718053 H 0.0 **** 0.06
9259 H 77.40196602600096 91.39043384837909 39.71087988565961 H 0.0 **** 0.06
9260 H 77.72170121827128 93.10609468220889 39.36224232317241 H 0.0 **** 0.06
9261 C 70.74486235045993 98.4279626285738 10.593086293974181 C 0.0 **** -0.24
9262 H 71.80825975272415 98.57864591495488 10.778324537618204 H 0.0 **** 0.06
9263 H 70.17771160784042 99.23822850244767 11.051263068488481 H 0.0 **** 0.06
9264 H 70.43222042717636 97.47593058695443 11.022051010055321 H 0.0 **** 0.06
9265 H 70.56286594250608 98.41917532367307 9.517986837577809 H 0.0 **** 0.06
9266 C 14.388561466302448 4.912234022326061 47.46941231153644 C 0.0 **** -0.24
9267 H 15.160491058146988 5.574279545810384 47.077074271547126 H 0.0 **** 0.06
9268 H 13.413232382220556 5.388270371379733 47.36228931232194 H 0.0 **** 0.06
9269 H 14.582252824879674 4.713959686820374 48.524812601620745 H 0.0 **** 0.06
9270 H 14.399018549112583 3.9742613282973593 46.915937383443946 H 0.0 **** 0.06
9271 C 8.950840094803482 8.994236565206876 61.40428821666919 C 0.0 **** -0.24
9272 H 8.311383358959176 8.756865810547978 60.554149457579115 H 0.0 **** 0.06
9273 H 9.41763858523231 8.080352628096207 61.77321514202124 H 0.0 **** 0.06
9274 H 8.350955689209599 9.44226226731385 62.19590386703267 H 0.0 **** 0.06
9275 H 9.722882023316288 9.697060393795795 61.09199090970097 H 0.0 **** 0.06
9276 C 6.497477172139369 50.91445846870221 86.67013660414 C 0.0 **** -0.24
9277 H 7.316325609504418 50.620391968345814 86.01339323999969 H 0.0 **** 0.06
9278 H 6.725569862466543 50.61235448768002 87.69260941358999 H 0.0 **** 0.06
9279 H 5.577719130263105 50.42995122844104 86.34392572086507 H 0.0 **** 0.06
9280 H 6.371076596523693 51.99714599315763 86.63120846624908 H 0.0 **** 0.06
9281 C 1.4854675343268866 89.32292235298706 25.378594972675177 C 0.0 **** -0.24
9282 H 1.364219879317801 90.38829695113645 25.179771603575304 H 0.0 **** 0.06
9283 H 0.504989596318353 88.8593149030425 25.486144219160586 H 0.0 **** 0.06
9284 H 2.05521920426753 89.1885305497662 26.29838386809477 H 0.0 **** 0.06
9285 H 2.0192533352628175 88.85771877404449 24.550110187711606 H 0.0 **** 0.06
9286 C 63.07977781816149 52.17776613143843 60.35723685461082 C 0.0 **** -0.24
9287 H 63.399924983089136 51.49098005507909 59.574741289036695 H 0.0 **** 0.06
9288 H 63.07011652616896 51.65698101429109 61.31544053399756 H 0.0 **** 0.06
9289 H 62.07823736123467 52.543527214722644 60.13177902788962 H 0.0 **** 0.06
9290 H 63.77135409008355 53.01940477827344 60.40828984573474 H 0.0 **** 0.06
9291 C 57.81839104883929 36.98342340077786 69.86974748563438 C 0.0 **** -0.24
9292 H 57.11952861526913 36.32732938831155 70.38910928259793 H 0.0 **** 0.06
9293 H 57.459666406200256 37.16567109498586 68.85633880574846 H 0.0 **** 0.06
9294 H 58.79943199221913 36.50817126640299 69.82849374417128 H 0.0 **** 0.06
9295 H 57.895227376401635 37.92892838824443 70.40510636581104 H 0.0 **** 0.06
9296 C 86.09678656294605 34.07175374803603 87.7685229145732 C 0.0 **** -0.24
9297 H 85.62757710788853 33.48752030320048 88.56060782953398 H 0.0 **** 0.06
9298 H 85.57073334599349 33.89854887874196 86.8297429666811 H 0.0 **** 0.06
9299 H 87.13830844884296 33.769826142972754 87.66344895224707 H 0.0 **** 0.06
9300 H 86.04894631717357 35.1303796112158 88.02168936663253 H 0.0 **** 0.06
9301 C 4.924555711616648 51.312892846571444 22.62162436532634 C 0.0 **** -0.24
9302 H 4.580452099632026 52.32599247541942 22.41485994106723 H 0.0 **** 0.06
9303 H 4.068806175657045 50.67811686797903 22.849591150595593 H 0.0 **** 0.06
9304 H 5.604109924962643 51.327453686026715 23.474458356762355 H 0.0 **** 0.06
9305 H 5.445688590972935 50.92110150414721 21.747919158235856 H 0.0 **** 0.06
9306 C 57.38902680129733 25.935796784842154 20.652190661836656 C 0.0 **** -0.24
9307 H 57.50840026746601 25.418610044173676 21.60397032948606 H 0.0 **** 0.06
9308 H 58.197389120723045 26.657197518999226 20.527675172640087 H 0.0 **** 0.06
9309 H 56.43206416800839 26.457133644735393 20.639577689862733 H 0.0 **** 0.06
9310 H 57.41994084725656 25.211774591824877 19.83844324504244 H 0.0 **** 0.06
9311 C 3.2107054244629865 1.75699412327252 65.68661261278653 C 0.0 **** -0.24
9312 H 3.9874857015506393 1.7315563029497412 64.92303355403556 H 0.0 **** 0.06
9313 H 2.2754451032478187 1.3861940528075536 65.264882560807 H 0.0 **** 0.06
9314 H 3.0731547454748522 2.7815440186950013 66.03189223528423 H 0.0 **** 0.06
9315 H 3.505905342568326 1.1269468496903698 66.52550243661467 H 0.0 **** 0.06
9316 C 60.90406120108764 69.231564248972 58.33090653441877 C 0.0 **** -0.24
9317 H 61.04518771879191 70.26333929841246 58.00905523508802 H 0.0 **** 0.06
9318 H 61.87587496930735 68.74691746688893 58.4310876743629 H 0.0 **** 0.06
9319 H 60.305914946481124 68.69911767241405 57.5902875457321 H 0.0 **** 0.06
9320 H 60.38998733347131 69.21822567980712 59.29155933938646 H 0.0 **** 0.06
9321 C 105.15712282174059 41.20815321538194 68.67379772625924 C 0.0 **** -0.24
9322 H 106.1108810534628 41.72039704886143 68.55335634433739 H 0.0 **** 0.06
9323 H 105.09950096151877 40.77987020750112 69.67444656126146 H 0.0 **** 0.06
9324 H 105.07482405194358 40.412955220663235 67.93285523912627 H 0.0 **** 0.06
9325 H 104.34322872382967 41.91964818365389 68.53549732955413 H 0.0 **** 0.06
9326 C 100.41676504748797 85.07634923727653 71.5161100836682 C 0.0 **** -0.24
9327 H 101.2548458628786 84.41602874766909 71.2924225323153 H 0.0 **** 0.06
9328 H 100.70184635700116 86.10798921074684 71.30702547621019 H 0.0 **** 0.06
9329 H 100.14935384136112 84.97993656430896 72.56851236521874 H 0.0 **** 0.06
9330 H 99.56242910917082 84.80224629647086 70.89801353629963 H 0.0 **** 0.06
9331 C 79.25729105739597 90.01782317169497 20.11148607193718 C 0.0 **** -0.24
9332 H 80.14687294885714 90.01878185175767 20.740548707410994 H 0.0 **** 0.06
9333 H 78.53138674913137 90.72829089405977 20.509403584988775 H 0.0 **** 0.06
9334 H 78.82063340003832 89.01957896774624 20.10016046403797 H 0.0 **** 0.06
9335 H 79.52971457644418 90.30748533668614 19.09660629404175 H 0.0 **** 0.06
9336 C 20.143436884919467 41.502942479156786 72.66350611482818 C 0.0 **** -0.24
9337 H 20.175052756062613 40.65000055823211 73.34024398797266 H 0.0 **** 0.06
9338 H 19.661141121384503 42.34393724768228 73.1618817866833 H 0.0 **** 0.06
9339 H 19.579306445000995 41.237688441395306 71.76964884121656 H 0.0 **** 0.06
9340 H 21.159189092964965 41.782387888352645 72.38252665982196 H 0.0 **** 0.06
9341 C 7.056855386628371 68.5686616467083 63.20036050797671 C 0.0 **** -0.24
9342 H 7.205313519334652 69.49945172720933 63.74776046599098 H 0.0 **** 0.06
9343 H 7.877514677690215 67.88411905769108 63.417681778513014 H 0.0 **** 0.06
9344 H 7.0320571237828915 68.77720212226652 62.130016778667084 H 0.0 **** 0.06
9345 H 6.113935054632236 68.11445854161552 63.503394258348635 H 0.0 **** 0.06
9346 C 19.90153491903996 14.771343659726995 66.29725206378981 C 0.0 **** -0.24
9347 H 19.548468313513837 14.421230905402979 67.26751685432043 H 0.0 **** 0.06
9348 H 19.046970169426146 15.05666394812448 65.68257638178699 H 0.0 **** 0.06
9349 H 20.455363228418662 13.974191592241425 65.803529071909 H 0.0 **** 0.06
9350 H 20.552592418890356 15.634525216272237 66.43760684698108 H 0.0 **** 0.06
9351 C 22.51947990594908 106.65995040096868 98.25962305776116 C 0.0 **** -0.24
9352 H 21.594578419785858 107.18817612930275 98.02643952053249 H 0.0 **** 0.06
9353 H 22.31896119546295 105.88749218210475 99.00295159586575 H 0.0 **** 0.06
9354 H 23.25003088234199 107.36529731896599 98.65631024611751 H 0.0 **** 0.06
9355 H 22.913389764465144 106.19967438893633 97.35340468992459 H 0.0 **** 0.06
9356 C 90.23972722146243 67.2324805648727 17.953034097748287 C 0.0 **** -0.24
9357 H 90.10651637635749 67.41615441735016 19.01941982514228 H 0.0 **** 0.06
9358 H 91.30423256896688 67.24448271361493 17.71288174249635 H 0.0 **** 0.06
9359 H 89.72961406462088 68.00885754334433 17.383680062462147 H 0.0 **** 0.06
9360 H 89.82075180154209 66.25863077170327 17.69710647925362 H 0.0 **** 0.06
9361 C 92.47218551934469 19.303750960754883 1.0244450438852937 C 0.0 **** -0.24
9362 H 92.83337184424745 18.604830147956022 0.2700679232737855 H 0.0 **** 0.06
9363 H 91.47009948988585 19.01186551452713 1.3392945342563678 H 0.0 **** 0.06
9364 H 92.44288460441545 20.309765657561172 0.6037543303554003 H 0.0 **** 0.06
9365 H 93.14225904865003 19.28903978176021 1.8838051173980261 H 0.0 **** 0.06
9366 C 57.7608914462308 51.01273440191346 53.74675017325063 C 0.0 **** -0.24
9367 H 56.713571578065256 51.12535010924262 53.46821389316091 H 0.0 **** 0.06
9368 H 58.23969721399896 50.294065078017354 53.08028769848758 H 0.0 **** 0.06
9369 H 57.8265277536449 50.654822088941216 54.77469686633481 H 0.0 **** 0.06
9370 H 58.265003918505585 51.97615478230182 53.66422417727492 H 0.0 **** 0.06
9371 C 57.86401348466688 85.28850807148063 49.425056948460735 C 0.0 **** -0.24
9372 H 58.796290481968114 85.24541223241874 49.987830471498796 H 0.0 **** 0.06
9373 H 57.26366893993773 86.12675882903733 49.779601492238726 H 0.0 **** 0.06
9374 H 57.31090551504764 84.35941794753415 49.567380109645455 H 0.0 **** 0.06
9375 H 58.085302216444546 85.42170747838952 48.366083424719136 H 0.0 **** 0.06
9376 C 20.152871896900574 26.768661024660474 73.29091681120235 C 0.0 **** -0.24
9377 H 20.737292952332506 26.046022565932418 72.72144565928647 H 0.0 **** 0.06
9378 H 19.807819084138522 26.307439978193827 74.21638448648417 H 0.0 **** 0.06
9379 H 19.29439517304941 27.086877065091073 72.70100843905897 H 0.0 **** 0.06
9380 H 20.77360703371889 27.632885309953622 73.52541188489965 H 0.0 **** 0.06
9381 C 27.777505022324846 100.65938444195021 11.99071057665604 C 0.0 **** -0.24
9382 H 27.328892802259872 101.1061840491914 12.878048675194613 H 0.0 **** 0.06
9383 H 27.219314403229077 99.76505956925953 11.712295420397865 H 0.0 **** 0.06
9384 H 28.812462056379985 100.3911874480745 12.20250294923027 H 0.0 **** 0.06
9385 H 27.748460617530228 101.37521939781897 11.169553818860242 H 0.0 **** 0.06
9386 C 16.532747170802125 37.54305583433603 73.44562073665747 C 0.0 **** -0.24
9387 H 17.595174442570936 37.48640575445563 73.68535773685869 H 0.0 **** 0.06
9388 H 16.31359036235206 36.87941905881996 72.60785625208212 H 0.0 **** 0.06
9389 H 16.275272684849014 38.567518860582936 73.1758817405128 H 0.0 **** 0.06
9390 H 15.948045078344265 37.23800243365548 74.31357154224196 H 0.0 **** 0.06
9391 C 91.58886399240973 47.12305060317573 64.3832389381882 C 0.0 **** -0.24
9392 H 92.45388119852726 46.65015171142761 64.84907111261451 H 0.0 **** 0.06
9393 H 91.92662204677661 47.87488155717466 63.66924631410538 H 0.0 **** 0.06
9394 H 90.97752357299512 47.599203134197126 65.15042236391592 H 0.0 **** 0.06
9395 H 90.99839369890789 46.36802890768206 63.86447235616346 H 0.0 **** 0.06
9396 C 72.67901671550489 41.9661190574658 50.23665551269467 C 0.0 **** -0.24
9397 H 72.3814287999846 42.62980802278573 49.42477676492049 H 0.0 **** 0.06
9398 H 72.43658482160005 42.43137517694332 51.19254005932098 H 0.0 **** 0.06
9399 H 73.75303231460383 41.785224889862455 50.183031389621625 H 0.0 **** 0.06
9400 H 72.14593325846457 41.019834547415456 50.14605557294709 H 0.0 **** 0.06
9401 C 70.1910147035386 20.62494352314535 4.500209591040255 C 0.0 **** -0.24
9402 H 70.26060464026907 20.156004883307777 5.481695453453854 H 0.0 **** 0.06
9403 H 70.98330428372634 20.241334903121313 3.8573796327123766 H 0.0 **** 0.06
9404 H 70.29991141311339 21.704424399652286 4.606371096412662 H 0.0 **** 0.06
9405 H 69.22076259263898 20.399494339423157 4.056980259660477 H 0.0 **** 0.06
9406 C 29.677404316554203 80.6019208424068 58.42036160423993 C 0.0 **** -0.24
9407 H 29.560244522840605 80.0203573668617 59.33424845129238 H 0.0 **** 0.06
9408 H 30.732782782159973 80.83378723572517 58.269965214466026 H 0.0 **** 0.06
9409 H 29.11032390909338 81.52932147348471 58.50491703231535 H 0.0 **** 0.06
9410 H 29.306967622848447 80.02542306074838 57.572548132503044 H 0.0 **** 0.06
9411 C 66.75853534729328 8.27434871297196 104.45230884613898 C 0.0 **** -0.24
9412 H 66.97389505958148 8.630581759793909 105.45883447344761 H 0.0 **** 0.06
9413 H 65.68285931482819 8.137808116099832 104.337934556439 H 0.0 **** 0.06
9414 H 67.26459654070248 7.322746217174936 104.28781114549321 H 0.0 **** 0.06
9415 H 67.11139460831549 9.004872688005749 103.72429389115376 H 0.0 **** 0.06
9416 C 88.28452086355061 65.56196896283153 42.509975440142085 C 0.0 **** -0.24
9417 H 88.86249211002767 64.73044462950189 42.914860966020655 H 0.0 **** 0.06
9418 H 88.05613254959779 65.36753105558884 41.461505870412665 H 0.0 **** 0.06
9419 H 88.8649495630322 66.48006599079046 42.590926034737564 H 0.0 **** 0.06
9420 H 87.35661166310078 65.66684173507602 43.0718178604062 H 0.0 **** 0.06
9421 C 69.33023408425655 86.13880375380143 44.98669952520271 C 0.0 **** -0.24
9422 H 70.02476011115621 85.32724742255806 44.770249497734596 H 0.0 **** 0.06
9423 H 69.56164693405574 86.56290853186675 45.96487693049329 H 0.0 **** 0.06
9424 H 68.31082157122202 85.75384635741895 44.9892697764098 H 0.0 **** 0.06
9425 H 69.42551050714829 86.91182401170529 44.22357513655041 H 0.0 **** 0.06
9426 C 105.42277198608312 60.69380907866713 10.632938324937186 C 0.0 **** -0.24
9427 H 105.32310964713321 59.77515077365615 11.211633472734434 H 0.0 **** 0.06
9428 H 106.20318627613187 60.56645688184574 9.882732579961441 H 0.0 **** 0.06
9429 H 105.68962613393231 61.51424454097332 11.299356541011605 H 0.0 **** 0.06
9430 H 104.47730683345873 60.91697184434315 10.140599376227783 H 0.0 **** 0.06
9431 C 95.0101232474341 84.59074186601603 96.67360739851689 C 0.0 **** -0.24
9432 H 95.0727943014202 83.91864318790184 95.81839083869227 H 0.0 **** 0.06
9433 H 94.04804508451748 85.10327920669812 96.66467418116045 H 0.0 **** 0.06
9434 H 95.81404537046046 85.32552703597577 96.61810302356756 H 0.0 **** 0.06
9435 H 95.10712952178643 84.01598274489152 97.59512434453205 H 0.0 **** 0.06
9436 C 99.57843746735495 76.7946869100918 72.61700765676855 C 0.0 **** -0.24
9437 H 98.98429524525432 76.01893431528026 73.10130373955243 H 0.0 **** 0.06
9438 H 100.63783523488024 76.59678486434075 72.78313683266876 H 0.0 **** 0.06
9439 H 99.31942560396737 77.76554131680626 73.03956686850583 H 0.0 **** 0.06
9440 H 99.37119032686729 76.79569697571941 71.54715192627765 H 0.0 **** 0.06
9441 C 74.47131106951423 106.67215328761158 40.30895851773791 C 0.0 **** -0.24
9442 H 75.50295193007209 107.02241712292705 40.354126309910406 H 0.0 **** 0.06
9443 H 74.0222672633821 106.98842108645182 39.36655195747379 H 0.0 **** 0.06
9444 H 73.90805943025629 107.0940656268979 41.139961027572014 H 0.0 **** 0.06
9445 H 74.45375793484273 105.58455281205356 40.37272967915714 H 0.0 **** 0.06
9446 C 90.29019374968601 48.63865393931701 58.91010246776034 C 0.0 **** -0.24
9447 H 90.25456638645699 48.18747170017605 59.90148078365553 H 0.0 **** 0.06
9448 H 91.3260642625462 48.6861858393022 58.57121340062213 H 0.0 **** 0.06
9449 H 89.8752397771953 49.645375605729555 58.95448008911319 H 0.0 **** 0.06
9450 H 89.70804266473198 48.0343492622718 58.21451302645693 H 0.0 **** 0.06
9451 C 75.70177709103875 51.912256084677594 8.899423488557545 C 0.0 **** -0.24
9452 H 74.86480305681123 51.2153943932883 8.869592178450716 H 0.0 **** 0.06
9453 H 75.69510696415756 52.525333368734906 7.998283957786384 H 0.0 **** 0.06
9454 H 76.63705713178149 51.35448392246785 8.954170199905661 H 0.0 **** 0.06
9455 H 75.60896252003973 52.553481683228014 9.776355598994769 H 0.0 **** 0.06
9456 C 9.135693043775547 54.046084154621916 89.27106846955792 C 0.0 **** -0.24
9457 H 9.24450669209682 53.34148070438372 90.09560062645346 H 0.0 **** 0.06
9458 H 9.484878339879117 53.581763259626335 88.34810936892234 H 0.0 **** 0.06
9459 H 9.726582387315887 54.93864825118157 89.47586302221885 H 0.0 **** 0.06
9460 H 8.0859951327173 54.32142897967228 89.16526078688844 H 0.0 **** 0.06
9461 C 19.80106530827395 22.853079569960187 36.93849161096309 C 0.0 **** -0.24
9462 H 20.152681893608495 23.8682402374871 37.12385159480202 H 0.0 **** 0.06
9463 H 18.815777947993787 22.723074171797606 37.38630421373399 H 0.0 **** 0.06
9464 H 20.499016831516627 22.14150387719266 37.380837018954786 H 0.0 **** 0.06
9465 H 19.738675384470852 22.680855649960762 35.863739941495325 H 0.0 **** 0.06
9466 C 104.6596203936594 45.447076388062506 36.78446918201513 C 0.0 **** -0.24
9467 H 105.09119087622577 44.7248403040349 37.47727698627335 H 0.0 **** 0.06
9468 H 104.88524514985494 46.4568740696066 37.12615000393561 H 0.0 **** 0.06
9469 H 103.5791700501614 45.309759758658956 36.74371509026116 H 0.0 **** 0.06
9470 H 105.08310001481914 45.294675747082 35.79128500847537 H 0.0 **** 0.06
9471 C 88.928389617059 62.49940299101718 69.70167689297094 C 0.0 **** -0.24
9472 H 88.53731050058724 61.642243660847654 70.25131840472983 H 0.0 **** 0.06
9473 H 88.71361592434164 62.37903402062227 68.64004830475693 H 0.0 **** 0.06
9474 H 90.00670512115005 62.562759702046094 69.84939734168381 H 0.0 **** 0.06
9475 H 88.45694536780775 63.4108152998638 70.06825648055082 H 0.0 **** 0.06
9476 C 16.437539789759395 25.157993239516102 44.881687605262044 C 0.0 **** -0.24
9477 H 17.029139815688843 25.764020003420654 45.56704928081501 H 0.0 **** 0.06
9478 H 16.967586929097557 25.05990929416342 43.93463203742925 H 0.0 **** 0.06
9479 H 15.474226510418934 25.637653657955752 44.71137005523488 H 0.0 **** 0.06
9480 H 16.27962738926696 24.16916655440103 45.314269676006546 H 0.0 **** 0.06
9481 C 43.42490959411174 31.70468251276199 58.03415312788474 C 0.0 **** -0.24
9482 H 43.90260884486645 31.38333574825586 57.10859200563786 H 0.0 **** 0.06
9483 H 42.542047128186766 31.090865599425996 58.218377081209155 H 0.0 **** 0.06
9484 H 43.129626710170044 32.74985815237554 57.946309111827254 H 0.0 **** 0.06
9485 H 44.124713441037414 31.59201166780454 58.862102133183825 H 0.0 **** 0.06
9486 C 99.9114309691721 73.05476024480296 102.87612119764106 C 0.0 **** -0.24
9487 H 100.13797593357631 72.05635269830839 103.25272117555394 H 0.0 **** 0.06
9488 H 100.20974540926603 73.79779551476452 103.61693957800281 H 0.0 **** 0.06
9489 H 98.84069914248867 73.13675131094769 102.68997470810217 H 0.0 **** 0.06
9490 H 100.45627166426966 73.2255777830415 101.94863933383698 H 0.0 **** 0.06
9491 C 30.28078550978229 18.69123160568094 59.52864543878525 C 0.0 **** -0.24
9492 H 30.628857217549843 18.622806675343355 60.55972878280534 H 0.0 **** 0.06
9493 H 30.930266940157807 18.094502923885784 58.887388465239155 H 0.0 **** 0.06
9494 H 30.30538041559256 19.731393360106665 59.20522732207246 H 0.0 **** 0.06
9495 H 29.25991196312642 18.31402703423481 59.464796863565994 H 0.0 **** 0.06
9496 C 55.93834781083427 60.27168267186718 49.90150650778108 C 0.0 **** -0.24
9497 H 56.683408628362656 61.03633985546577 50.118325368296325 H 0.0 **** 0.06
9498 H 56.21577109663184 59.342628401977514 50.39939021544302 H 0.0 **** 0.06
9499 H 55.889427028567866 60.10687181383278 48.825006689175126 H 0.0 **** 0.06
9500 H 54.964454917224145 60.60144862383153 50.26254214449068 H 0.0 **** 0.06
9501 C 83.32622266125946 7.19473959652214 10.897660313708295 C 0.0 **** -0.24
9502 H 83.32613609589899 8.28030466740148 10.795993169484465 H 0.0 **** 0.06
9503 H 84.19373513276562 6.781855769283908 10.381995884283429 H 0.0 **** 0.06
9504 H 82.41512469501711 6.788313467127807 10.45919141119659 H 0.0 **** 0.06
9505 H 83.371806704275 6.92959260380573 11.953802283987063 H 0.0 **** 0.06
9506 C 24.68585956851294 8.972611565816516 1.3353349079636274 C 0.0 **** -0.24
9507 H 24.227290434337135 9.293055614451335 0.39954075604273953 H 0.0 **** 0.06
9508 H 24.69671735652173 7.882990828264818 1.3796691132596095 H 0.0 **** 0.06
9509 H 24.112318843938425 9.3652998911891 2.174245850438396 H 0.0 **** 0.06
9510 H 25.7079711251468 9.348376553693377 1.3857071512328645 H 0.0 **** 0.06
9511 C 8.111003925957633 102.76134581887914 11.432251706365804 C 0.0 **** -0.24
9512 H 8.36073686076601 103.09899701802448 10.426451113811794 H 0.0 **** 0.06
9513 H 8.876985048616021 102.06984643956072 11.783753130944632 H 0.0 **** 0.06
9514 H 7.145130289764808 102.2575685831514 11.41688064937064 H 0.0 **** 0.06
9515 H 8.062487315051015 103.62041201225225 12.101507358570302 H 0.0 **** 0.06
9516 C 68.4976787543824 50.11237666006389 7.074085447934323 C 0.0 **** -0.24
9517 H 67.63587077179537 49.61758059076794 7.524092834061349 H 0.0 **** 0.06
9518 H 69.26435397174569 50.26674594174392 7.833979511142928 H 0.0 **** 0.06
9519 H 68.19164427618111 51.07431326693006 6.664397138478577 H 0.0 **** 0.06
9520 H 68.89826285530708 49.48733480455306 6.274961027187402 H 0.0 **** 0.06
9521 C 86.84415393544029 10.935342004218 44.424330009192175 C 0.0 **** -0.24
9522 H 86.38985241855939 11.925908510967759 44.38729117399777 H 0.0 **** 0.06
9523 H 87.70342372000214 10.956096473900672 45.09498522416777 H 0.0 **** 0.06
9524 H 87.16902959819187 10.648596009363558 43.42483004221285 H 0.0 **** 0.06
9525 H 86.11384693051718 10.214772533931892 44.791075120692284 H 0.0 **** 0.06
9526 C 59.26946191651473 105.373317621379 15.25871351736339 C 0.0 **** -0.24
9527 H 59.01644961327057 104.43015331718546 15.744400288590413 H 0.0 **** 0.06
9528 H 58.79471345102729 106.19562659743096 15.794729921993806 H 0.0 **** 0.06
9529 H 58.91512648337937 105.35699822529206 14.22791683646956 H 0.0 **** 0.06
9530 H 60.3513835392898 105.50771582969462 15.270309246649902 H 0.0 **** 0.06
9531 C 69.48432469492727 3.1743259986273245 6.248280682035443 C 0.0 **** -0.24
9532 H 68.77882779434654 2.371007746312614 6.035551687493751 H 0.0 **** 0.06
9533 H 70.04111014400726 2.9375271279864847 7.155024291570101 H 0.0 **** 0.06
9534 H 68.93980914886092 4.108549056623133 6.387560369506787 H 0.0 **** 0.06
9535 H 70.17735661936516 3.2792843743086024 5.412731006356637 H 0.0 **** 0.06
9536 C 69.71993942475889 104.90162696541819 17.228004476321935 C 0.0 **** -0.24
9537 H 69.53939663061044 105.29094354967617 18.229257959754054 H 0.0 **** 0.06
9538 H 70.74053076344423 105.13839416766774 16.924492703784047 H 0.0 **** 0.06
9539 H 69.01798562264243 105.35572866984029 16.52860386916725 H 0.0 **** 0.06
9540 H 69.58410553753944 103.81947555910602 17.229508050654914 H 0.0 **** 0.06
9541 C 56.5201758768731 19.45918705409869 99.68692695303679 C 0.0 **** -0.24
9542 H 55.78512246499217 19.523396869591295 100.49041271933518 H 0.0 **** 0.06
9543 H 57.42512428708527 18.980694295859593 100.05987830473387 H 0.0 **** 0.06
9544 H 56.758455120081365 20.46204289857485 99.33283677479565 H 0.0 **** 0.06
9545 H 56.10922928122271 18.87137139181658 98.8654408591087 H 0.0 **** 0.06
9546 C 92.41332760975038 32.940832221370584 31.112456516494504 C 0.0 **** -0.24
9547 H 92.83657157004112 32.10384037040498 31.667331164097845 H 0.0 **** 0.06
9548 H 92.4587089812573 33.84175682081959 31.72377646041859 H 0.0 **** 0.06
9549 H 91.37536639619765 32.72261571027424 30.861351403764033 H 0.0 **** 0.06
9550 H 92.98356676884791 33.09370867515628 30.195577108035394 H 0.0 **** 0.06
9551 C 41.15083227288423 4.7438583472370155 18.14205509010013 C 0.0 **** -0.24
9552 H 41.22392156915586 5.811270368517739 17.931441027519583 H 0.0 **** 0.06
9553 H 42.13145543532315 4.282588105425978 18.02413268524971 H 0.0 **** 0.06
9554 H 40.4469185046423 4.283567213242914 17.44960572127954 H 0.0 **** 0.06
9555 H 40.80201548684241 4.599160745904626 19.16468609599046 H 0.0 **** 0.06
9556 C 23.82769556513324 78.36709910356225 23.93954073376628 C 0.0 **** -0.24
9557 H 23.403793951213473 77.74330548937156 24.726276801533714 H 0.0 **** 0.06
9558 H 23.388855810684575 78.08939591126855 22.980027618511883 H 0.0 **** 0.06
9559 H 24.906866016895208 78.21984671912094 23.902331071265564 H 0.0 **** 0.06
9560 H 23.609819575025497 79.41399640047875 24.148836628419673 H 0.0 **** 0.06
9561 C 39.100944577824905 55.345865876446844 91.68621932853407 C 0.0 **** -0.24
9562 H 38.18241206191344 55.38502260793243 92.27282441875997 H 0.0 **** 0.06
9563 H 38.899544866065185 54.86773183887083 90.72739154163733 H 0.0 **** 0.06
9564 H 39.85351006546887 54.77223154933332 92.22850118909832 H 0.0 **** 0.06
9565 H 39.46744749552229 56.359082216009995 91.51837114123256 H 0.0 **** 0.06
9566 C 44.404793665129645 31.576500173500847 85.69257232169255 C 0.0 **** -0.24
9567 H 43.404214114356456 31.47676934973215 85.27021809066602 H 0.0 **** 0.06
9568 H 44.32874723118816 31.767579886752515 86.7633824021377 H 0.0 **** 0.06
9569 H 44.920755656781324 32.406998149173404 85.21105697515958 H 0.0 **** 0.06
9570 H 44.96246001241291 30.654760344118998 85.52557634311196 H 0.0 **** 0.06
9571 C 20.593601751936077 0.2124900240532952 104.49216543322565 C 0.0 **** -0.24
9572 H 19.59400682874407 -0.21244510537337646 104.40502303197067 H 0.0 **** 0.06
9573 H 21.273708160740284 -0.5380279371252072 104.89518128455542 H 0.0 **** 0.06
9574 H 20.56497492959525 1.0732515020464461 105.15971232716204 H 0.0 **** 0.06
9575 H 20.941558599140933 0.5276545462415356 103.50787832301064 H 0.0 **** 0.06
9576 C 104.869854209285 60.02168985331766 36.66331383433254 C 0.0 **** -0.24
9577 H 103.88131085100014 60.124662727776865 37.112421158252744 H 0.0 **** 0.06
9578 H 105.5855765948615 60.62620919098259 37.220181440397056 H 0.0 **** 0.06
9579 H 104.83577074002761 60.3594232886671 35.62791627161832 H 0.0 **** 0.06
9580 H 105.17505326743662 58.97565342634716 36.69484233292664 H 0.0 **** 0.06
9581 C 79.95901724307959 54.773159065231255 54.18444639047141 C 0.0 **** -0.24
9582 H 80.35796740591175 54.20589014680331 53.343472280772346 H 0.0 **** 0.06
9583 H 80.06687915736183 55.84001662061411 53.9856989947952 H 0.0 **** 0.06
9584 H 80.50791680532649 54.51434503892398 55.08955978123464 H 0.0 **** 0.06
9585 H 78.90526480239856 54.53262770959816 54.31760445549173 H 0.0 **** 0.06
9586 C 68.03389494423807 11.503059854092966 59.332936259154565 C 0.0 **** -0.24
9587 H 67.92056638789896 12.381644220401405 58.69711089046467 H 0.0 **** 0.06
9588 H 68.09010047501911 10.609815882163366 58.70985528037073 H 0.0 **** 0.06
9589 H 67.177989620575 11.426248161843997 60.00248363362772 H 0.0 **** 0.06
9590 H 68.94809698593374 11.595432360813067 59.919685503622134 H 0.0 **** 0.06
9591 C 7.13756859115756 92.30465360535254 71.5196223337581 C 0.0 **** -0.24
9592 H 7.195735311310429 93.13862718552832 72.21864120389358 H 0.0 **** 0.06
9593 H 8.037421163710647 91.69507740102563 71.60802455938182 H 0.0 **** 0.06
9594 H 7.055963697562419 92.68738447268288 70.50301603630103 H 0.0 **** 0.06
9595 H 6.262991203263681 91.69677672617013 71.75127033760012 H 0.0 **** 0.06
9596 C 76.0871749206971 70.59782310633148 82.97357894756112 C 0.0 **** -0.24
9597 H 75.71287411502189 71.52905754419987 82.54845539790949 H 0.0 **** 0.06
9598 H 75.57386270509633 70.39454505478864 83.91321147826807 H 0.0 **** 0.06
9599 H 77.1590660631093 70.68771582915383 83.15549232678899 H 0.0 **** 0.06
9600 H 75.90512822530886 69.78081389875706 82.2753356757178 H 0.0 **** 0.06
9601 C 96.32072364474993 5.805412266235635 67.22373718878205 C 0.0 **** -0.24
9602 H 95.88282345282681 6.1243057638151015 68.17000728871866 H 0.0 **** 0.06
9603 H 96.23991559870475 4.722307974074795 67.13309587297752 H 0.0 **** 0.06
9604 H 97.37088993176022 6.096162227247561 67.19327497043716 H 0.0 **** 0.06
9605 H 95.7885580433375 6.281094678639448 66.39932177771638 H 0.0 **** 0.06
9606 C 91.10992451582698 24.14021160831855 15.203596683249422 C 0.0 **** -0.24
9607 H 91.9859941651712 24.175102589677735 15.851343782740447 H 0.0 **** 0.06
9608 H 91.06784632147884 25.046810649193116 14.599709835975261 H 0.0 **** 0.06
9609 H 90.20913602385929 24.066952911039767 15.813663895257804 H 0.0 **** 0.06
9610 H 91.17666345073657 23.2705902127912 14.549923030076322 H 0.0 **** 0.06
9611 C 60.6383124997912 29.839658308087593 26.33088641877265 C 0.0 **** -0.24
9612 H 60.38772694920897 29.86522298189783 25.27074538961105 H 0.0 **** 0.06
9613 H 59.910285634798015 30.426047130594327 26.89162231831594 H 0.0 **** 0.06
9614 H 61.63419569889834 30.257957638537462 26.47952041743133 H 0.0 **** 0.06
9615 H 60.62256785280431 28.807674707509854 26.68247950201217 H 0.0 **** 0.06
9616 C 52.8195766900341 18.85779832691941 63.30369670751142 C 0.0 **** -0.24
9617 H 52.25750894022832 19.79081892106299 63.32514589826448 H 0.0 **** 0.06
9618 H 53.63216923817407 18.939760961312356 62.58208519970211 H 0.0 **** 0.06
9619 H 52.15822513605673 18.041750512419146 63.01509884718607 H 0.0 **** 0.06
9620 H 53.23074094338108 18.659469855399216 64.29368887847207 H 0.0 **** 0.06
9621 C 51.427695188544305 80.31156877868415 74.2459483588201 C 0.0 **** -0.24
9622 H 51.30013326373705 79.24099243349781 74.40673069253813 H 0.0 **** 0.06
9623 H 50.709086268940105 80.6548381223688 73.50104492065941 H 0.0 **** 0.06
9624 H 52.43975574949881 80.50796805431514 73.8908195201592 H 0.0 **** 0.06
9625 H 51.261282283684075 80.84225053722247 75.18303602465454 H 0.0 **** 0.06
9626 C 96.30664576054713 88.22255119481838 52.6219537781019 C 0.0 **** -0.24
9627 H 97.14056788502586 88.37654773225916 53.307199494374004 H 0.0 **** 0.06
9628 H 95.54125108822467 87.62012137371903 53.1120487201656 H 0.0 **** 0.06
9629 H 96.66075487180876 87.70511712238118 51.729870001736685 H 0.0 **** 0.06
9630 H 95.88595987490713 89.18729985487926 52.33966831348607 H 0.0 **** 0.06
9631 C 40.78610262153455 98.0582766205601 96.91467522980622 C 0.0 **** -0.24
9632 H 41.058596108795626 98.99316224740784 97.40333546252506 H 0.0 **** 0.06
9633 H 41.22067916097194 98.02994338565176 95.91509071618138 H 0.0 **** 0.06
9634 H 39.69991803736501 97.99031307096372 96.83967655276919 H 0.0 **** 0.06
9635 H 41.16275776652326 97.21858463138037 97.49928108041463 H 0.0 **** 0.06
9636 C 33.168887467813306 89.31250943088372 19.984563740253634 C 0.0 **** -0.24
9637 H 33.329498137117724 90.33400033663295 19.638748351583217 H 0.0 **** 0.06
9638 H 34.088997288875674 88.92995629499246 20.42569829701938 H 0.0 **** 0.06
9639 H 32.88037173935126 88.68464481878527 19.142023310963452 H 0.0 **** 0.06
9640 H 32.375056574923775 89.304279637671 20.73230604137285 H 0.0 **** 0.06
9641 C 75.43178647399739 98.4117312087032 11.084955216461552 C 0.0 **** -0.24
9642 H 76.34957727733732 98.28301183085182 10.511128522963759 H 0.0 **** 0.06
9643 H 75.34100673307307 97.60273618400083 11.809548053592664 H 0.0 **** 0.06
9644 H 74.57558191018805 98.39420778723769 10.409817872960687 H 0.0 **** 0.06
9645 H 75.46178735540124 99.36757407720665 11.607599499167165 H 0.0 **** 0.06
9646 C 79.7942523376634 70.99841529327931 80.46357609492915 C 0.0 **** -0.24
9647 H 79.25245553471638 71.71818864400493 79.85040871839274 H 0.0 **** 0.06
9648 H 79.19177605404658 70.09903219688846 80.58626687068123 H 0.0 **** 0.06
9649 H 79.99962086644055 71.43530441431243 81.44114829067472 H 0.0 **** 0.06
9650 H 80.73482879870235 70.74156350661778 79.97633202250793 H 0.0 **** 0.06
9651 C 29.298213958190786 86.84740857233515 33.82584589271062 C 0.0 **** -0.24
9652 H 30.24053847084994 86.32579524472153 33.660519779536855 H 0.0 **** 0.06
9653 H 29.43303332287502 87.91153819429665 33.630460063018546 H 0.0 **** 0.06
9654 H 28.980642262262563 86.70402166701575 34.85885951325142 H 0.0 **** 0.06
9655 H 28.538616091013125 86.44728167154373 33.15347821070361 H 0.0 **** 0.06
9656 C 104.86893331470554 13.306505978853792 1.7273830863967419 C 0.0 **** -0.24
9657 H 105.91506341608292 13.498774352232644 1.4879808789470133 H 0.0 **** 0.06
9658 H 104.2421502774385 13.615145887388863 0.8908132256094916 H 0.0 **** 0.06
9659 H 104.59182511525941 13.871329359321479 2.617678159657885 H 0.0 **** 0.06
9660 H 104.72866794065995 12.242269647564996 1.91502725705854 H 0.0 **** 0.06
9661 C 59.25470196728111 59.309003466624205 96.69436000440334 C 0.0 **** -0.24
9662 H 59.73146079149036 60.061606648472576 97.32355095320489 H 0.0 **** 0.06
9663 H 59.305499256043305 59.62401832080255 95.65143428838951 H 0.0 **** 0.06
9664 H 58.21152861339621 59.19664488496062 96.9900179433663 H 0.0 **** 0.06
9665 H 59.77084267426211 58.35744496333956 96.81260884737213 H 0.0 **** 0.06
9666 C 56.934141244876216 83.90661623001623 71.32307644414334 C 0.0 **** -0.24
9667 H 56.31302241121452 84.79819612343742 71.23429346358051 H 0.0 **** 0.06
9668 H 56.47345398973705 83.21268805712539 72.02631158304445 H 0.0 **** 0.06
9669 H 57.92374578694515 84.18720325355596 71.68313402385303 H 0.0 **** 0.06
9670 H 57.02429734608353 83.42893795028814 70.34785800124342 H 0.0 **** 0.06
9671 C 12.494968559235517 78.20110858387703 54.68057541430781 C 0.0 **** -0.24
9672 H 11.519866464315612 77.72350924843437 54.59320027199613 H 0.0 **** 0.06
9673 H 12.3687060863269 79.21886581487816 55.0509991643814 H 0.0 **** 0.06
9674 H 12.976762414154987 78.22511930741126 53.70342709035928 H 0.0 **** 0.06
9675 H 13.114867015628608 77.63516642102375 55.37795350988231 H 0.0 **** 0.06
9676 C 16.98351246356782 2.5501817082634943 17.870609259927363 C 0.0 **** -0.24
9677 H 16.646358845071234 1.5454723641759927 17.617012636338316 H 0.0 **** 0.06
9678 H 18.0700669049409 2.557842550134808 17.958526709174194 H 0.0 **** 0.06
9679 H 16.539478506055843 2.8532466842358275 18.819193049313512 H 0.0 **** 0.06
9680 H 16.676626579521837 3.244853452353283 17.08817270106279 H 0.0 **** 0.06
9681 C 83.9765047272405 6.81127548840597 24.64239264417975 C 0.0 **** -0.24
9682 H 83.33218329539505 7.291315556416899 25.37962000289218 H 0.0 **** 0.06
9683 H 84.35117076575065 5.870274734933965 25.046397215541276 H 0.0 **** 0.06
9684 H 84.81596916208693 7.466966707194082 24.41161529325106 H 0.0 **** 0.06
9685 H 83.40673475318621 6.61627081306618 23.734156972452695 H 0.0 **** 0.06
9686 C 62.85606445366102 86.44445210793997 13.49737191496208 C 0.0 **** -0.24
9687 H 62.2212595728152 85.5636732591289 13.5915423330379 H 0.0 **** 0.06
9688 H 62.25607803999526 87.28886042897444 13.15668636659283 H 0.0 **** 0.06
9689 H 63.64828289250937 86.24558623039621 12.775744583153724 H 0.0 **** 0.06
9690 H 63.297373780942394 86.67990459630892 14.466111784997373 H 0.0 **** 0.06
9691 C 43.88082240260468 82.93513252648515 12.811328684035686 C 0.0 **** -0.24
9692 H 43.47755130529248 82.30074030939015 12.021245966903166 H 0.0 **** 0.06
9693 H 43.4087510987581 83.91687480940506 12.766035089050007 H 0.0 **** 0.06
9694 H 44.95747653426935 83.04293664282493 12.67558291953003 H 0.0 **** 0.06
9695 H 43.68049633713264 82.47925469870798 13.780868046010369 H 0.0 **** 0.06
9696 C 36.37820304287163 24.539704884614025 85.72178647258744 C 0.0 **** -0.24
9697 H 36.67373458560212 25.345581809628413 86.39323503652778 H 0.0 **** 0.06
9698 H 35.39540386128181 24.167396058064355 86.01164787599899 H 0.0 **** 0.06
9699 H 37.10688100812652 23.73068689744747 85.78394822858367 H 0.0 **** 0.06
9700 H 36.33869752266875 24.91543422356807 84.6998293109629 H 0.0 **** 0.06
9701 C 29.00071998990336 44.67590059844254 68.11090024562856 C 0.0 **** -0.24
9702 H 30.06026158276336 44.59607127454298 67.86983479023957 H 0.0 **** 0.06
9703 H 28.826093437405063 45.58518872780311 68.68557523797313 H 0.0 **** 0.06
9704 H 28.695345155568077 43.809492450850364 68.6983658892567 H 0.0 **** 0.06
9705 H 28.4205129070333 44.711373375785364 67.18865236905128 H 0.0 **** 0.06
9706 C 2.64319641073277 18.859457180750603 11.86376104819459 C 0.0 **** -0.24
9707 H 1.5960743146391962 18.706231994544666 12.127693112436134 H 0.0 **** 0.06
9708 H 2.7032415274830726 19.345170498588235 10.889343321543791 H 0.0 **** 0.06
9709 H 3.1514663703189854 17.895878957027882 11.822235361842644 H 0.0 **** 0.06
9710 H 3.1190907319361827 19.48943425643235 12.614641959811749 H 0.0 **** 0.06
9711 C 66.24209002119593 0.16025191577645614 91.51430616043417 C 0.0 **** -0.24
9712 H 67.32553003422163 0.14736171476981497 91.63775793621363 H 0.0 **** 0.06
9713 H 65.92927985692444 1.137822375834574 91.14654192401069 H 0.0 **** 0.06
9714 H 65.76563157230021 -0.03560846848284882 92.47486160431944 H 0.0 **** 0.06
9715 H 65.94852702563952 -0.6089696927959096 90.80040170888265 H 0.0 **** 0.06
9716 C 86.51868081802084 3.8967258816796004 94.2204591906268 C 0.0 **** -0.24
9717 H 87.52430809640862 4.0053535147213495 94.62816199545927 H 0.0 **** 0.06
9718 H 85.83342431744491 3.606227373756809 95.01670968323151 H 0.0 **** 0.06
9719 H 86.52210112770076 3.1310645085432327 93.44512530273957 H 0.0 **** 0.06
9720 H 86.19752032024167 4.84672074479235 93.79171280358787 H 0.0 **** 0.06
9721 C 24.29796355208606 4.3189129059708335 97.77343396495436 C 0.0 **** -0.24
9722 H 23.523930078365026 4.889900132877074 97.2605036749454 H 0.0 **** 0.06
9723 H 24.542907449264817 4.805925234918021 98.71769146061331 H 0.0 **** 0.06
9724 H 25.18915430535941 4.270460399717237 97.14708570797475 H 0.0 **** 0.06
9725 H 23.935004031142682 3.3097370328872273 97.96810072931655 H 0.0 **** 0.06
9726 C 75.13765414383205 93.77895218807969 77.12819637100264 C 0.0 **** -0.24
9727 H 75.52967073444141 92.76086549111272 77.12970404035909 H 0.0 **** 0.06
9728 H 74.0896106094473 93.76457692831576 77.42731308374022 H 0.0 **** 0.06
9729 H 75.22465867830518 94.19960795635544 76.12704973658148 H 0.0 **** 0.06
9730 H 75.70791986113004 94.38756110320591 77.8298286805857 H 0.0 **** 0.06
9731 C 67.90209512600053 25.949386700368763 47.28042374984966 C 0.0 **** -0.24
9732 H 66.98916463555467 25.97487174828788 46.686440514228366 H 0.0 **** 0.06
9733 H 68.28382775040443 24.92888519593717 47.317539911374354 H 0.0 **** 0.06
9734 H 67.68729136582725 26.294248892662495 48.29259033047998 H 0.0 **** 0.06
9735 H 68.64886598013933 26.60127412700666 46.82630942965966 H 0.0 **** 0.06
9736 C 30.171197327024153 74.58932764934583 90.40186620664433 C 0.0 **** -0.24
9737 H 31.102126950770533 74.71757975481688 89.85013700508877 H 0.0 **** 0.06
9738 H 30.285390533445245 74.99452982403045 91.4074177112871 H 0.0 **** 0.06
9739 H 29.92760955250845 73.52825115579735 90.46287781875576 H 0.0 **** 0.06
9740 H 29.368406857689287 75.11702747157035 89.88638575803645 H 0.0 **** 0.06
9741 C 105.1224041557441 106.35086926768724 51.64778850315548 C 0.0 **** -0.24
9742 H 105.1102117977832 105.3246918342312 51.280361050657575 H 0.0 **** 0.06
9743 H 105.69947354729457 106.97482563766766 50.9649692777254 H 0.0 **** 0.06
9744 H 105.57782736812435 106.37669932767778 52.6372581429157 H 0.0 **** 0.06
9745 H 104.10104920834443 106.72631931229046 51.70851765215218 H 0.0 **** 0.06
9746 C 71.83393073695936 1.4241808999929333 60.62180409034028 C 0.0 **** -0.24
9747 H 71.40010668090213 0.46433729041507377 60.34047747248468 H 0.0 **** 0.06
9748 H 71.46738885974224 2.1990610290603456 59.948210322294585 H 0.0 **** 0.06
9749 H 72.92016434400301 1.3656753608144072 60.5507944266148 H 0.0 **** 0.06
9750 H 71.5479369581546 1.6658196503927911 61.64515835419786 H 0.0 **** 0.06
9751 C 57.08209512076388 19.61569685228856 62.17084462445041 C 0.0 **** -0.24
9752 H 56.58072252558509 20.583421498865125 62.20022600148627 H 0.0 **** 0.06
9753 H 57.39161999902464 19.397754220994862 61.148377463120596 H 0.0 **** 0.06
9754 H 56.3975265363172 18.84202193331922 62.5167833819703 H 0.0 **** 0.06
9755 H 57.9587735403903 19.641301662797666 62.81802006233448 H 0.0 **** 0.06
9756 C 14.990517120075197 95.45351193697195 45.71765928941913 C 0.0 **** -0.24
9757 H 15.88239008189339 96.05209406995174 45.53128929632643 H 0.0 **** 0.06
9758 H 14.34562523164476 95.47899880545282 44.83939875367597 H 0.0 **** 0.06
9759 H 14.454114692782866 95.8594409809225 46.57528260469986 H 0.0 **** 0.06
9760 H 15.280877456985536 94.42357320082665 45.92643143286417 H 0.0 **** 0.06
9761 C 22.53195769038848 37.667588886342344 101.535011419787 C 0.0 **** -0.24
9762 H 21.47472826444553 37.51809161369214 101.31923341700406 H 0.0 **** 0.06
9763 H 22.63734665921629 38.29891793021402 102.41726053897798 H 0.0 **** 0.06
9764 H 23.01205178062446 38.1492650521642 100.68323947896943 H 0.0 **** 0.06
9765 H 23.0046334456309 36.701856789769735 101.72074770710924 H 0.0 **** 0.06
9766 C 41.26591526524441 18.540185130666387 91.18498333212321 C 0.0 **** -0.24
9767 H 40.55743647517757 18.40956140949919 92.00274487316725 H 0.0 **** 0.06
9768 H 40.72222044053618 18.629816681153542 90.24410455868484 H 0.0 **** 0.06
9769 H 41.932441306563305 17.678547232783913 91.13948711129254 H 0.0 **** 0.06
9770 H 41.85246324678381 19.44388317520719 91.35337591278443 H 0.0 **** 0.06
9771 C 58.65195177138021 90.97996762695749 77.54446823760316 C 0.0 **** -0.24
9772 H 59.05142500958873 91.04100158768063 76.53193294704494 H 0.0 **** 0.06
9773 H 57.56190616141477 90.97416153331665 77.50544720652218 H 0.0 **** 0.06
9774 H 58.99021375952782 91.84144025719479 78.12014387142246 H 0.0 **** 0.06
9775 H 59.00331249187573 90.06456477946807 78.01915962769787 H 0.0 **** 0.06
9776 C 58.6103574489334 97.35394635690352 99.83872285008054 C 0.0 **** -0.24
9777 H 58.6137696578385 96.8546520982396 100.80780402428731 H 0.0 **** 0.06
9778 H 57.98417533124035 98.2445432266331 99.89144737767035 H 0.0 **** 0.06
9779 H 58.215932996852445 96.6755981809462 99.08209096045621 H 0.0 **** 0.06
9780 H 59.62845029539176 97.6408053585338 99.57462514658818 H 0.0 **** 0.06
9781 C 31.782746233806414 67.58736832756432 28.19222309364784 C 0.0 **** -0.24
9782 H 32.76689842996328 67.54058175223093 28.659079823210362 H 0.0 **** 0.06
9783 H 31.194557810516777 68.37525522316537 28.663213907735866 H 0.0 **** 0.06
9784 H 31.276305684311822 66.63044676637713 28.317983969759922 H 0.0 **** 0.06
9785 H 31.895164918358375 67.80226660301855 27.129228969092168 H 0.0 **** 0.06
9786 C 59.008311087545906 96.02388369078226 13.088691610698973 C 0.0 **** -0.24
9787 H 58.64123047308726 95.06843197257035 12.713613546924421 H 0.0 **** 0.06
9788 H 58.742236099679786 96.12648830170482 14.140934986563408 H 0.0 **** 0.06
9789 H 58.5583989254136 96.83579651539478 12.518223144652922 H 0.0 **** 0.06
9790 H 60.092909755756864 96.06187589822747 12.981962615694087 H 0.0 **** 0.06
9791 C 73.00658325985216 26.971878446867475 30.20857177912069 C 0.0 **** -0.24
9792 H 73.7532421808059 27.39627284506 30.881135265316715 H 0.0 **** 0.06
9793 H 73.46207381347804 26.18001713896672 29.614918110406506 H 0.0 **** 0.06
9794 H 72.6299774282773 27.751962978459634 29.547555257528046 H 0.0 **** 0.06
9795 H 72.18328515643589 26.561337355044067 30.792587978842818 H 0.0 **** 0.06
9796 C 61.306545314722484 1.8465636314175455 55.679578640749924 C 0.0 **** -0.24
9797 H 61.275933766399675 2.0386563643024305 56.75231115395059 H 0.0 **** 0.06
9798 H 60.306060259468154 1.9636295536315718 55.26050104344769 H 0.0 **** 0.06
9799 H 61.65707126627839 0.8294920853158194 55.501868847441116 H 0.0 **** 0.06
9800 H 61.98496840514923 2.553487386725558 55.20299331033304 H 0.0 **** 0.06
9801 C 97.19438435743461 60.2261730127325 2.735734914266099 C 0.0 **** -0.24
9802 H 97.98773630536166 60.80187233163669 3.2125228031866646 H 0.0 **** 0.06
9803 H 96.28671244858967 60.82739045319056 2.688448787551244 H 0.0 **** 0.06
9804 H 97.00321434159827 59.322395526676495 3.3147029697324273 H 0.0 **** 0.06
9805 H 97.50276160261544 59.95152277617446 1.7254262611588187 H 0.0 **** 0.06
9806 C 34.88619367665706 55.27573007443533 106.47144015977642 C 0.0 **** -0.24
9807 H 35.38306147670838 55.60025690967603 105.55725614017203 H 0.0 **** 0.06
9808 H 35.310942921783635 55.806702279438106 107.32364513881856 H 0.0 **** 0.06
9809 H 35.02949746034386 54.20374914688186 106.60287292171643 H 0.0 **** 0.06
9810 H 33.82018505470302 55.49415631190837 106.40217732809936 H 0.0 **** 0.06
9811 C 92.9627568282148 33.70901596781806 66.44450479264299 C 0.0 **** -0.24
9812 H 93.74050308315869 33.1294088679079 65.94770396852658 H 0.0 **** 0.06
9813 H 92.33315260576862 33.04178100038803 67.03449784510161 H 0.0 **** 0.06
9814 H 92.35395456652687 34.2163777992875 65.69657534705965 H 0.0 **** 0.06
9815 H 93.42302987292884 34.448340253719095 67.10059325371304 H 0.0 **** 0.06
9816 C 46.73380640802582 104.006534026981 26.34568395237782 C 0.0 **** -0.24
9817 H 46.351854907622894 103.00035789674679 26.515246047522236 H 0.0 **** 0.06
9818 H 47.70518783015686 103.94840797714289 25.855835866228666 H 0.0 **** 0.06
9819 H 46.837753744750636 104.52177014007054 27.300896721322886 H 0.0 **** 0.06
9820 H 46.038337912751714 104.55637794197416 25.710609149874003 H 0.0 **** 0.06
9821 C 103.903553802254 97.88010321480283 50.61701590996381 C 0.0 **** -0.24
9822 H 102.8860998701895 97.50148889176677 50.711537705576234 H 0.0 **** 0.06
9823 H 103.87527554650029 98.92683429663202 50.315057191176436 H 0.0 **** 0.06
9824 H 104.43799214696762 97.29905047076235 49.86507635303775 H 0.0 **** 0.06
9825 H 104.41467333687318 97.79132548243268 51.57621093311525 H 0.0 **** 0.06
9826 C 102.03234904599488 66.93458822489879 10.228075082874797 C 0.0 **** -0.24
9827 H 101.53306480327439 66.42970649145377 9.400492197203345 H 0.0 **** 0.06
9828 H 101.28771255915152 67.41882723024759 10.860176194074018 H 0.0 **** 0.06
9829 H 102.71813824911263 67.68494159193709 9.834870691296384 H 0.0 **** 0.06
9830 H 102.58960720759633 66.20574276238841 10.815541067900252 H 0.0 **** 0.06
9831 C 35.573752685925115 103.37755252523901 31.581952465558885 C 0.0 **** -0.24
9832 H 36.36417575959811 103.6518500984302 32.28033051254238 H 0.0 **** 0.06
9833 H 35.69063948770096 103.94392659811768 30.65873281056929 H 0.0 **** 0.06
9834 H 34.60337918159439 103.60203754293686 32.026177075193914 H 0.0 **** 0.06
9835 H 35.63533735320328 102.3110872338209 31.365234172689725 H 0.0 **** 0.06
9836 C 20.998508691250606 56.54035345180051 54.02015004986288 C 0.0 **** -0.24
9837 H 20.39275965807093 55.86489974113823 54.623321708179674 H 0.0 **** 0.06
9838 H 21.55215179379394 55.96497082973673 53.276705390527525 H 0.0 **** 0.06
9839 H 21.699708029589075 57.0725691509231 54.66219880301287 H 0.0 **** 0.06
9840 H 20.351061872870915 57.2572535747359 53.51548825696307 H 0.0 **** 0.06
9841 C 82.48360981376797 60.78292639436074 99.57683712023957 C 0.0 **** -0.24
9842 H 82.7231385159098 60.787954097854225 100.63985612212485 H 0.0 **** 0.06
9843 H 82.23238245080296 59.76867414849568 99.26625877364026 H 0.0 **** 0.06
9844 H 83.3440285259046 61.13498100695705 99.00906530963917 H 0.0 **** 0.06
9845 H 81.63361733112384 61.44025096898565 99.39370358909568 H 0.0 **** 0.06
9846 C 12.827519626349837 47.557718487230886 103.4152996443259 C 0.0 **** -0.24
9847 H 12.52904513867022 48.526165043758624 103.81589286020636 H 0.0 **** 0.06
9848 H 11.95685882262772 46.90429646316289 103.35670658751735 H 0.0 **** 0.06
9849 H 13.575767507660963 47.11002068551096 104.06975935875477 H 0.0 **** 0.06
9850 H 13.250292088178867 47.69194570580066 102.41901892934257 H 0.0 **** 0.06
9851 C 0.01072429633700267 49.08976814102267 9.136868466877758 C 0.0 **** -0.24
9852 H 0.5694347037966736 48.30031207960588 9.640470052330784 H 0.0 **** 0.06
9853 H -0.2397873564875681 48.76754575618482 8.126043375575222 H 0.0 **** 0.06
9854 H 0.6204638777888363 49.992310267993 9.089244066214292 H 0.0 **** 0.06
9855 H -0.9044453191446564 49.297092462009815 9.690284086057119 H 0.0 **** 0.06
9856 C 11.080763538833054 10.30077087544737 73.45358579546354 C 0.0 **** -0.24
9857 H 10.110485181365078 9.91226006503183 73.76527319047513 H 0.0 **** 0.06
9858 H 11.872772309489477 9.697365389375648 73.896129119045 H 0.0 **** 0.06
9859 H 11.181915267380987 11.334672162767447 73.78500728779503 H 0.0 **** 0.06
9860 H 11.155809797103132 10.259160746841872 72.36668129540953 H 0.0 **** 0.06
9861 C 61.17857420365462 12.214590979184209 12.843820681229719 C 0.0 **** -0.24
9862 H 60.3435719850752 12.720401894569363 12.358513208722767 H 0.0 **** 0.06
9863 H 60.89317373575577 11.933824379991734 13.857552099921822 H 0.0 **** 0.06
9864 H 62.03692721364378 12.885835636926913 12.880103630908842 H 0.0 **** 0.06
9865 H 61.43989107053507 11.320590609088526 12.277317762822607 H 0.0 **** 0.06
9866 C 40.91231152886408 56.41034580180121 99.37971212602855 C 0.0 **** -0.24
9867 H 40.76733136066329 57.42631135798234 99.01304684835168 H 0.0 **** 0.06
9868 H 39.94133731764464 55.95649153921187 99.58440266097597 H 0.0 **** 0.06
9869 H 41.5019511153194 56.43468168745096 100.29547277922649 H 0.0 **** 0.06
9870 H 41.43552803486065 55.8231188873724 98.62458711755232 H 0.0 **** 0.06
9871 C 20.325410579729652 83.02632273482277 91.6754558441531 C 0.0 **** -0.24
9872 H 21.23426805785202 82.92441798755391 92.26971360035736 H 0.0 **** 0.06
9873 H 19.662724451088497 83.75195914911814 92.14632691464763 H 0.0 **** 0.06
9874 H 19.82340603124639 82.06052516797934 91.6142249712231 H 0.0 **** 0.06
9875 H 20.58414942176969 83.36589875432082 90.67309363689648 H 0.0 **** 0.06
9876 C 44.85881188162068 35.597581763791005 98.12430052446501 C 0.0 **** -0.24
9877 H 44.61836884887799 36.638584023515335 98.34181186460495 H 0.0 **** 0.06
9878 H 43.96506734485354 34.98550535321018 98.24452892065835 H 0.0 **** 0.06
9879 H 45.6314514979519 35.251467667174545 98.81074335281994 H 0.0 **** 0.06
9880 H 45.2212511606287 35.51541847842532 97.09923188940576 H 0.0 **** 0.06
9881 C 8.152371637224519 75.59866609923918 63.10712361202832 C 0.0 **** -0.24
9882 H 8.927824139104487 75.74639683194317 63.859618671776786 H 0.0 **** 0.06
9883 H 8.135443873236952 74.55102173989846 62.80481829201727 H 0.0 **** 0.06
9884 H 8.364453419299778 76.22468616654047 62.24046283946001 H 0.0 **** 0.06
9885 H 7.183959926499355 75.87270000959083 63.525635117455124 H 0.0 **** 0.06
9886 C 88.0186224369033 3.103249806702479 89.11210126757227 C 0.0 **** -0.24
9887 H 87.2979542462558 2.478866809551988 89.63869870996538 H 0.0 **** 0.06
9888 H 88.86440692390651 3.3131558888883887 89.76784802200243 H 0.0 **** 0.06
9889 H 87.54322549716254 4.040325702736624 88.82112488836512 H 0.0 **** 0.06
9890 H 88.36947070187604 2.5818085894055685 88.22131438099873 H 0.0 **** 0.06
9891 C 28.005742518328873 64.93945478035954 91.48913919987547 C 0.0 **** -0.24
9892 H 28.888755692646043 65.36740478208085 91.01294458954078 H 0.0 **** 0.06
9893 H 27.206154915246714 64.84611152962822 90.75420354721723 H 0.0 **** 0.06
9894 H 27.68030260991867 65.58910569423753 92.3006952320165 H 0.0 **** 0.06
9895 H 28.25002353139439 63.95446130741428 91.88718990348224 H 0.0 **** 0.06
9896 C 44.161615416175664 21.59304905913327 90.80399094146262 C 0.0 **** -0.24
9897 H 43.31690766310808 20.93270735607347 90.60418999338158 H 0.0 **** 0.06
9898 H 45.04594134273677 20.993639630449923 91.02348072260345 H 0.0 **** 0.06
9899 H 43.93175943196172 22.228176111472226 91.65833365370783 H 0.0 **** 0.06
9900 H 44.350978526895375 22.21427681428828 89.92865535391381 H 0.0 **** 0.06
9901 C 85.78118504265343 98.41988911293107 76.49677506539581 C 0.0 **** -0.24
9902 H 86.54900308138576 97.89389628197374 77.06425344823919 H 0.0 **** 0.06
9903 H 85.38450658012417 99.23886003805227 77.09734692489818 H 0.0 **** 0.06
9904 H 84.97612540328146 97.72941323093437 76.24702578797647 H 0.0 **** 0.06
9905 H 86.21609667532545 98.81855405493698 75.58010344736226 H 0.0 **** 0.06
9906 C 9.087362354039245 47.23109108498676 65.63018410058307 C 0.0 **** -0.24
9907 H 9.090667197484505 48.110269532856684 66.27530896477101 H 0.0 **** 0.06
9908 H 8.711472507946018 46.37263642039867 66.18809913388164 H 0.0 **** 0.06
9909 H 10.103124171544005 47.027400574265506 65.29025639368963 H 0.0 **** 0.06
9910 H 8.44565769723874 47.414782257285985 64.76958355183096 H 0.0 **** 0.06
9911 C 50.61569940704286 92.50903417607857 91.9079159717497 C 0.0 **** -0.24
9912 H 50.88474149870961 91.79214505058772 92.68311272250858 H 0.0 **** 0.06
9913 H 51.499934241894 92.75798652808169 91.32045428788538 H 0.0 **** 0.06
9914 H 50.22017363507019 93.4129742652919 92.37143662908062 H 0.0 **** 0.06
9915 H 49.85825379951145 92.07242422362009 91.25739419503199 H 0.0 **** 0.06
9916 C 64.88738218236276 35.7845625927597 54.98744299346947 C 0.0 **** -0.24
9917 H 64.42678234965038 36.54345614433001 55.62000056656569 H 0.0 **** 0.06
9918 H 65.28132047694696 36.25479398287112 54.085465250721086 H 0.0 **** 0.06
9919 H 64.14104016138243 35.039574485081246 54.71256121710593 H 0.0 **** 0.06
9920 H 65.6994233302247 35.30222538439635 55.530390174399145 H 0.0 **** 0.06
9921 C 85.40315222506312 54.13479109006426 40.360361647833685 C 0.0 **** -0.24
9922 H 85.97890787023563 53.29591907696324 39.96886719471911 H 0.0 **** 0.06
9923 H 84.45354669404851 54.20326883016389 39.82755310419532 H 0.0 **** 0.06
9924 H 85.96580735428697 55.057516328924315 40.220172397806266 H 0.0 **** 0.06
9925 H 85.21411397271763 53.981552787275476 41.4225905513332 H 0.0 **** 0.06
9926 C 31.36731850528605 58.38137443217124 46.03413388374071 C 0.0 **** -0.24
9927 H 30.738303153024475 58.92055380500471 46.7427162815128 H 0.0 **** 0.06
9928 H 32.06789375137495 59.07514772517494 45.56945695574365 H 0.0 **** 0.06
9929 H 30.740483014134753 57.92777754557786 45.26544805359811 H 0.0 **** 0.06
9930 H 31.92022988427425 57.60151693718524 46.55851545937708 H 0.0 **** 0.06
9931 C 44.429842707867344 65.77075883019506 76.40289315764454 C 0.0 **** -0.24
9932 H 44.575225319764975 64.69351943206118 76.3253054045666 H 0.0 **** 0.06
9933 H 43.362635716387594 65.99188814283764 76.4379333579093 H 0.0 **** 0.06
9934 H 44.87463323593599 66.26055412401473 75.5361228846132 H 0.0 **** 0.06
9935 H 44.906876559380855 66.13707362186682 77.31221098348924 H 0.0 **** 0.06
9936 C 69.65848619133621 85.54691618309573 53.717186210397614 C 0.0 **** -0.24
9937 H 70.31542536714574 85.42920839551294 52.85463153724166 H 0.0 **** 0.06
9938 H 70.24560659474724 85.86491064955405 54.579392630242126 H 0.0 **** 0.06
9939 H 69.17487493394972 84.59562747249214 53.93773239373235 H 0.0 **** 0.06
9940 H 68.90012220904043 86.29800707421975 53.49618338104142 H 0.0 **** 0.06
9941 C 68.98757148244033 73.80464881198719 93.20060135811963 C 0.0 **** -0.24
9942 H 68.74611102768552 74.66700825648925 93.82164944362825 H 0.0 **** 0.06
9943 H 68.90271194213378 74.07924907229042 92.14892018615495 H 0.0 **** 0.06
9944 H 68.29576830494966 72.9925166404278 93.42095866471908 H 0.0 **** 0.06
9945 H 70.00704418813763 73.48128892560513 93.40945409572083 H 0.0 **** 0.06
9946 C 46.80155212360673 59.01545602024071 21.38307678336929 C 0.0 **** -0.24
9947 H 45.83676683892793 59.46437843364726 21.619249875125035 H 0.0 **** 0.06
9948 H 47.54381675008374 59.80108693321515 21.243062551498383 H 0.0 **** 0.06
9949 H 46.71537426542681 58.42859618940349 20.468443175841742 H 0.0 **** 0.06
9950 H 47.109319584280804 58.366081867200336 22.203627318581198 H 0.0 **** 0.06
9951 C 73.01513817449425 9.171067433166598 99.65007056332598 C 0.0 **** -0.24
9952 H 73.75671653437695 8.6516270655234 100.257220430344 H 0.0 **** 0.06
9953 H 73.42195845733978 9.34873266919314 98.6548339061267 H 0.0 **** 0.06
9954 H 72.76813406956678 10.12408323172167 100.11755912254068 H 0.0 **** 0.06
9955 H 72.11603341497462 8.560017334184067 99.57344749864944 H 0.0 **** 0.06
9956 C 23.65108414977324 87.05453279796592 65.13224860542942 C 0.0 **** -0.24
9957 H 24.456778022554204 87.77444911580028 64.98312564390051 H 0.0 **** 0.06
9958 H 22.842789681001406 87.52607526775364 65.69242672190632 H 0.0 **** 0.06
9959 H 24.028315920148316 86.19716601234256 65.6891463219136 H 0.0 **** 0.06
9960 H 23.27754785078855 86.72364830692993 64.16357902355571 H 0.0 **** 0.06
9961 C 96.5798815180124 102.2694236647215 76.80038985314758 C 0.0 **** -0.24
9962 H 97.11006090532464 102.88280415258657 77.52789094023075 H 0.0 **** 0.06
9963 H 97.15103683894449 102.23133932011308 75.87239151061493 H 0.0 **** 0.06
9964 H 95.59870378600516 102.7039198149161 76.6053613249619 H 0.0 **** 0.06
9965 H 96.45874246520958 101.26030044571411 77.19465547681227 H 0.0 **** 0.06
9966 C 50.64645363542226 50.60750213089574 54.426801586076124 C 0.0 **** -0.24
9967 H 51.27449164284394 50.96587095963278 53.611245489912164 H 0.0 **** 0.06
9968 H 51.27234572199376 50.367193969769716 55.286811375048046 H 0.0 **** 0.06
9969 H 50.109973999358004 49.71518480889688 54.1064470353852 H 0.0 **** 0.06
9970 H 49.931814218384545 51.38276705438662 54.70241633741557 H 0.0 **** 0.06
9971 C 21.77653089279829 42.5119903335073 26.327111398170018 C 0.0 **** -0.24
9972 H 22.305334089956546 41.622973687196804 25.985782796651165 H 0.0 **** 0.06
9973 H 21.26732489466903 42.97775935928314 25.482784316876234 H 0.0 **** 0.06
9974 H 22.488471689574226 43.216555957329774 26.756938441588545 H 0.0 **** 0.06
9975 H 21.04256177979559 42.230580164866126 27.083225433790176 H 0.0 **** 0.06
9976 C 95.07559166183918 47.177100204889996 63.097306472206284 C 0.0 **** -0.24
9977 H 94.63113370385545 46.72860663341913 62.20779962540112 H 0.0 **** 0.06
9978 H 95.20452281745656 48.24837560124172 62.936923880089495 H 0.0 **** 0.06
9979 H 96.04600921327341 46.71905957454641 63.28928896190111 H 0.0 **** 0.06
9980 H 94.42045119030121 47.01300601779735 63.95229461440178 H 0.0 **** 0.06
9981 C 12.685449639018316 29.71496842393553 13.966133654425931 C 0.0 **** -0.24
9982 H 13.63534421059751 29.81567689956757 14.491678931092082 H 0.0 **** 0.06
9983 H 11.927721964122739 30.31951824108598 14.465791588634772 H 0.0 **** 0.06
9984 H 12.377916391133567 28.668576768713066 13.97109133909791 H 0.0 **** 0.06
9985 H 12.80133344670368 30.053956354399887 12.9370356025712 H 0.0 **** 0.06
9986 C 47.8000571261945 22.47208998696513 27.63998219024947 C 0.0 **** -0.24
9987 H 46.992030118638354 23.134219145186364 27.32828192151115 H 0.0 **** 0.06
9988 H 47.70088806586833 21.513603481658805 27.130969614877102 H 0.0 **** 0.06
9989 H 47.74775231191978 22.31855285946847 28.71817665177116 H 0.0 **** 0.06
9990 H 48.7583101127573 22.922971138994967 27.384363232358453 H 0.0 **** 0.06
9991 C 83.6470294664245 91.47937180568405 18.822746932749283 C 0.0 **** -0.24
9992 H 82.9926322012031 91.13030760523394 19.62194036505477 H 0.0 **** 0.06
9993 H 84.4692813589603 90.77471785885979 18.693234740800534 H 0.0 **** 0.06
9994 H 84.0450997469396 92.46045547038068 19.08263656602597 H 0.0 **** 0.06
9995 H 83.0798447808476 91.55105571448554 17.89552334220653 H 0.0 **** 0.06
9996 C 86.38435955866358 77.73267556866489 105.3630253041211 C 0.0 **** -0.24
9997 H 85.59207911946237 78.47873034012315 105.29954537302997 H 0.0 **** 0.06
9998 H 86.27359443330562 77.16121921531857 106.2845698929827 H 0.0 **** 0.06
9999 H 87.35374955940799 78.23124068796523 105.35806899114863 H 0.0 **** 0.06
10000 H 86.3189279542795 77.05944190631999 104.50787684882698 H 0.0 **** 0.06
10001 C 16.329796191917154 72.96651428208423 99.32967961026714 C 0.0 **** -0.24
10002 H 15.49068712222197 72.62796694937441 99.93823726904967 H 0.0 **** 0.06
10003 H 16.151775119135863 72.7029276511974 98.28793961672093 H 0.0 **** 0.06
10004 H 17.24621618644329 72.48679844394528 99.67544236145503 H 0.0 **** 0.06
10005 H 16.429589905528303 74.04853325637498 99.41995085006025 H 0.0 **** 0.06
10006 C 18.988383142269146 70.76446590802306 67.52332784068662 C 0.0 **** -0.24
10007 H 19.094887647164146 70.17596000098548 66.61170109431164 H 0.0 **** 0.06
10008 H 17.949113908530173 71.0719332430084 67.63697632836556 H 0.0 **** 0.06
10009 H 19.624985182638348 71.64675064578839 67.4623757382225 H 0.0 **** 0.06
10010 H 19.28524098696088 70.16069867190805 68.38118055151055 H 0.0 **** 0.06
10011 C 86.66983655916022 67.55552821004324 88.99951495632352 C 0.0 **** -0.24
10012 H 85.72366951529574 67.71690695530327 88.482215653729 H 0.0 **** 0.06
10013 H 86.52380516804735 66.84070223094113 89.80917312366749 H 0.0 **** 0.06
10014 H 87.02555877004929 68.50144757158358 89.40828382845272 H 0.0 **** 0.06
10015 H 87.40494952832634 67.16334446571636 88.29663833371706 H 0.0 **** 0.06
10016 C 83.14821517454558 46.36442253621232 11.602343817215313 C 0.0 **** -0.24
10017 H 83.02779954163529 47.07698877839216 12.419101547684562 H 0.0 **** 0.06
10018 H 83.37857894884586 45.380430023787625 12.010244485681966 H 0.0 **** 0.06
10019 H 83.9608543036607 46.69022432509526 10.953792737118363 H 0.0 **** 0.06
10020 H 82.22302363597977 46.31269879941639 11.028021610066617 H 0.0 **** 0.06
10021 C 98.68537698332233 62.791592284284576 59.09865914598217 C 0.0 **** -0.24
10022 H 98.13905355853518 62.497908412132205 58.202358858852136 H 0.0 **** 0.06
10023 H 99.71407660143467 63.03666733506978 58.83147176828962 H 0.0 **** 0.06
10024 H 98.68137217001214 61.968818703925166 59.81376495321578 H 0.0 **** 0.06
10025 H 98.20879684590443 63.6642811232671 59.54528457536611 H 0.0 **** 0.06
10026 C 22.054819640631663 15.388480388987887 88.30553618084056 C 0.0 **** -0.24
10027 H 23.064035072168167 15.001025824182918 88.44876651471947 H 0.0 **** 0.06
10028 H 21.593425972909586 15.565512215614262 89.27663776375832 H 0.0 **** 0.06
10029 H 21.46312896936945 14.662916465738476 87.74868540909497 H 0.0 **** 0.06
10030 H 22.101417661539756 16.32405555255015 87.7492310560522 H 0.0 **** 0.06
10031 C 41.99950588494909 24.175191089204134 13.20512398619735 C 0.0 **** -0.24
10032 H 42.78380201100498 23.742016696538457 13.825800419395591 H 0.0 **** 0.06
10033 H 41.795247501012454 23.512131610353975 12.363987622011393 H 0.0 **** 0.06
10034 H 42.3248637797908 25.146063523177446 12.832662415099549 H 0.0 **** 0.06
10035 H 41.092843511933324 24.298842148392026 13.798731211180069 H 0.0 **** 0.06
10036 C 41.086132910810676 17.781140396862043 99.52855299903862 C 0.0 **** -0.24
10037 H 40.469413626841856 18.356758534539566 98.83887136487553 H 0.0 **** 0.06
10038 H 42.11457845303869 17.76428472291889 99.1673074070874 H 0.0 **** 0.06
10039 H 40.70597030170251 16.761958805437185 99.5922235970682 H 0.0 **** 0.06
10040 H 41.05434733641363 18.24371563364342 100.51525992446395 H 0.0 **** 0.06
10041 C 67.49100343959728 77.2392956346406 76.63558592674352 C 0.0 **** -0.24
10042 H 67.39424766598862 76.40891858667712 77.33589803005005 H 0.0 **** 0.06
10043 H 66.5430139240095 77.3911348530506 76.11934911705737 H 0.0 **** 0.06
10044 H 68.26980268213856 77.00981179065226 75.90724213094566 H 0.0 **** 0.06
10045 H 67.75873149892172 78.14456276008414 77.18034166823674 H 0.0 **** 0.06
10046 C 20.631967604023487 66.25202759569677 81.37623131359948 C 0.0 **** -0.24
10047 H 19.5927335619686 66.53406461854527 81.2103295849652 H 0.0 **** 0.06
10048 H 20.8340114988045 66.22548748093328 82.44734737967283 H 0.0 **** 0.06
10049 H 21.286895040677052 66.98136284822397 80.90081066477242 H 0.0 **** 0.06
10050 H 20.81389445541504 65.26621105394045 80.94814595063937 H 0.0 **** 0.06
10051 C 84.00382871637969 3.502383476882841 59.411016143260255 C 0.0 **** -0.24
10052 H 83.65214589829368 4.215594075064502 58.66479526730321 H 0.0 **** 0.06
10053 H 84.60043794249951 2.731196360658913 58.92399708904531 H 0.0 **** 0.06
10054 H 83.14773702140184 3.042115031382224 59.904278418944266 H 0.0 **** 0.06
10055 H 84.61308514839949 4.02158462378145 60.15165879136457 H 0.0 **** 0.06
10056 C 49.05677539938881 9.79231503328819 66.09992751753549 C 0.0 **** -0.24
10057 H 49.00758503940921 10.25571989906065 65.11428611648282 H 0.0 **** 0.06
10058 H 49.80200453456365 8.996138687940174 66.0905185862571 H 0.0 **** 0.06
10059 H 48.08216326875805 9.374797048450887 66.35328624986013 H 0.0 **** 0.06
10060 H 49.33487697246312 10.541874836531406 66.84112408013951 H 0.0 **** 0.06
10061 C 60.5037612813004 11.714460238475453 46.832823984005906 C 0.0 **** -0.24
10062 H 61.50458163055501 11.923032875887372 47.20993770221329 H 0.0 **** 0.06
10063 H 60.2762106204128 12.394192414456569 46.01008423580606 H 0.0 **** 0.06
10064 H 59.77776684698455 11.856172662094224 47.63210133295566 H 0.0 **** 0.06
10065 H 60.45707489812571 10.685484096869857 46.47728333138694 H 0.0 **** 0.06
10066 C 44.87136302611793 71.43105304016224 76.62788243331858 C 0.0 **** -0.24
10067 H 44.97968567288956 70.46630794118636 76.13084131772729 H 0.0 **** 0.06
10068 H 43.81322247518432 71.67417577235354 76.7211003995626 H 0.0 **** 0.06
10069 H 45.37079226881923 72.20001060152988 76.03832885928699 H 0.0 **** 0.06
10070 H 45.3227614353612 71.38209821402873 77.61854664686592 H 0.0 **** 0.06
10071 C 79.0683938050629 18.525577638835294 102.887790529568 C 0.0 **** -0.24
10072 H 80.11512844907811 18.223607669691944 102.93092355082058 H 0.0 **** 0.06
10073 H 78.524844994256 18.07078838569111 103.71628443985847 H 0.0 **** 0.06
10074 H 78.63389238900433 18.1969195671928 101.9437242728364 H 0.0 **** 0.06
10075 H 79.00079417588991 19.61086635082066 102.96112807178254 H 0.0 **** 0.06
10076 C 18.010206028851144 83.90042556050571 48.674644525084815 C 0.0 **** -0.24
10077 H 18.23956641326464 83.09511866770328 49.371085649724364 H 0.0 **** 0.06
10078 H 18.910948198381107 84.17013207899964 48.12196857042852 H 0.0 **** 0.06
10079 H 17.65099116601786 84.76846484137843 49.228654686288365 H 0.0 **** 0.06
10080 H 17.240601021184887 83.57068425115523 47.97790753533305 H 0.0 **** 0.06
10081 C 73.23872741128135 106.30551233558936 89.39656726176715 C 0.0 **** -0.24
10082 H 73.87733453547327 106.09417948181292 88.53819780327218 H 0.0 **** 0.06
10083 H 72.88996750778871 105.36864967396622 89.82969026593902 H 0.0 **** 0.06
10084 H 72.38308060547374 106.89873713804013 89.07371343572596 H 0.0 **** 0.06
10085 H 73.80629467859941 106.863047404599 90.14196566122851 H 0.0 **** 0.06
10086 C 83.14046811175258 44.75237097375739 87.63071984346152 C 0.0 **** -0.24
10087 H 84.11046756816353 44.3813348137952 87.9616275771029 H 0.0 **** 0.06
10088 H 83.17388587680747 45.83985588976957 87.55344376828603 H 0.0 **** 0.06
10089 H 82.37604062781112 44.46234502011469 88.35226216421923 H 0.0 **** 0.06
10090 H 82.90105551571446 44.32548948195245 86.65681507139597 H 0.0 **** 0.06
10091 C 104.86021024148343 75.29688873969083 41.770272110300134 C 0.0 **** -0.24
10092 H 103.85212019937981 75.06781616986568 41.42513312383441 H 0.0 **** 0.06
10093 H 105.50007917951612 75.50206919983549 40.91219028675483 H 0.0 **** 0.06
10094 H 105.2559676963728 74.44440301323999 42.323933480620674 H 0.0 **** 0.06
10095 H 104.83249508361178 76.17051908983382 42.420479405812074 H 0.0 **** 0.06
10096 C 71.77007082472016 95.61967981900736 16.995538027668587 C 0.0 **** -0.24
10097 H 72.6856726059537 95.50546841828137 17.577830865383618 H 0.0 **** 0.06
10098 H 71.76425587470948 94.89417773997641 16.18243741882 H 0.0 **** 0.06
10099 H 71.7251335547794 96.62783839839634 16.584723489243274 H 0.0 **** 0.06
10100 H 70.90743420299611 95.45060568633144 17.639549421251218 H 0.0 **** 0.06
10101 C 104.88846921628661 62.022050245200944 14.740203938393222 C 0.0 **** -0.24
10102 H 103.85564206391666 61.830982659244654 14.447074262210265 H 0.0 **** 0.06
10103 H 105.05473369417524 63.09757488293596 14.805904870127847 H 0.0 **** 0.06
10104 H 105.56149107081481 61.59411701480062 13.99631516765669 H 0.0 **** 0.06
10105 H 105.08044990776636 61.564240624973394 15.71056596903827 H 0.0 **** 0.06
10106 C 39.8701053512126 65.64854589241139 10.482205842982069 C 0.0 **** -0.24
10107 H 39.33239524202952 66.36154356470861 9.857652530377734 H 0.0 **** 0.06
10108 H 40.616559494805415 66.17735576016763 11.076775557890926 H 0.0 **** 0.06
10109 H 40.36524391105965 64.91197740863001 9.849139970155335 H 0.0 **** 0.06
10110 H 39.16790805671479 65.14370663823188 11.145263133605312 H 0.0 **** 0.06
10111 C 93.63956728716023 29.42433780597767 73.72103362498711 C 0.0 **** -0.24
10112 H 93.88311678056112 30.465600794012914 73.93328056583783 H 0.0 **** 0.06
10113 H 93.67371922723642 28.84872195520572 74.64628427588502 H 0.0 **** 0.06
10114 H 94.36430907341027 29.01922257330159 73.01401187739629 H 0.0 **** 0.06
10115 H 92.63972432135755 29.364949743231534 73.29152251903366 H 0.0 **** 0.06
10116 C 61.90304604347563 91.68384863809715 67.68305448154781 C 0.0 **** -0.24
10117 H 61.760731837191656 90.84389053675258 68.361158933022 H 0.0 **** 0.06
10118 H 61.15773385502193 91.64095673211145 66.88891108870158 H 0.0 **** 0.06
10119 H 62.90093935834341 91.63500754744578 67.24754882685995 H 0.0 **** 0.06
10120 H 61.79294375203496 92.61853420467435 68.23467951178547 H 0.0 **** 0.06
10121 C 41.17341545560163 87.9263570280347 84.03488183484413 C 0.0 **** -0.24
10122 H 41.20181853048189 86.83833726244102 84.09719539287991 H 0.0 **** 0.06
10123 H 40.20565368354403 88.28465683330506 84.38909817501589 H 0.0 **** 0.06
10124 H 41.31894214400353 88.2341568341376 82.99901842310571 H 0.0 **** 0.06
10125 H 41.965212284726874 88.34692408675735 84.65404965995221 H 0.0 **** 0.06
10126 C 44.217250797369466 25.004085495723032 93.54767365273008 C 0.0 **** -0.24
10127 H 44.594974058130205 25.884935057736406 93.0304997944744 H 0.0 **** 0.06
10128 H 44.97379589267965 24.2192434678207 93.52690714249903 H 0.0 **** 0.06
10129 H 43.31367264017439 24.650424455096292 93.05171391447385 H 0.0 **** 0.06
10130 H 43.98798090469988 25.259754023398155 94.58178079949414 H 0.0 **** 0.06
10131 C 45.06253170498201 96.92433597677731 62.364688887874365 C 0.0 **** -0.24
10132 H 45.28766017704271 97.86344263157346 62.87158102198093 H 0.0 **** 0.06
10133 H 44.967678676652156 97.10475835298439 61.29410430086236 H 0.0 **** 0.06
10134 H 44.127860043186104 96.51893442870792 62.75087813000194 H 0.0 **** 0.06
10135 H 45.86821141660107 96.21347898343294 62.54435018228371 H 0.0 **** 0.06
10136 C 8.3065769080346 4.362311448489123 92.90845648650395 C 0.0 **** -0.24
10137 H 8.085693993796639 5.393047968484808 93.18898055787139 H 0.0 **** 0.06
10138 H 7.389628684809509 3.8712730079604967 92.58297238303209 H 0.0 **** 0.06
10139 H 8.71783100020771 3.8329887974332166 93.76789426947477 H 0.0 **** 0.06
10140 H 9.032004777063293 4.355324399702738 92.09602789650353 H 0.0 **** 0.06
10141 C 70.27633860486122 19.399075345012946 39.35058060822041 C 0.0 **** -0.24
10142 H 69.8598519466237 20.1221218437814 38.64925448436213 H 0.0 **** 0.06
10143 H 70.7911174511125 19.926468858524075 40.153165489042294 H 0.0 **** 0.06
10144 H 70.98210950751967 18.752901007831127 38.82798908869836 H 0.0 **** 0.06
10145 H 69.47228387756556 18.794322746462157 39.769730925855185 H 0.0 **** 0.06
10146 C 105.62612148763719 59.92593753868897 52.86803539491578 C 0.0 **** -0.24
10147 H 105.60222998930809 59.79262391202536 51.78579676654965 H 0.0 **** 0.06
10148 H 106.37529293268045 59.26231208749164 53.29869891651413 H 0.0 **** 0.06
10149 H 104.64655184366734 59.689720230852316 53.28398300648652 H 0.0 **** 0.06
10150 H 105.8796895877993 60.96065448526463 53.10049357693745 H 0.0 **** 0.06
10151 C 16.339627187284037 99.71817448145208 44.65185406127031 C 0.0 **** -0.24
10152 H 15.679473557286428 100.58522801790633 44.692042461533326 H 0.0 **** 0.06
10153 H 17.083752173544127 99.7916462119403 45.44481093753715 H 0.0 **** 0.06
10154 H 16.840544880748922 99.68818855644554 43.68395838472182 H 0.0 **** 0.06
10155 H 15.75279045942338 98.80904574424545 44.786138606726745 H 0.0 **** 0.06
10156 C 84.04380462000796 26.453397437902026 1.6084357499120188 C 0.0 **** -0.24
10157 H 83.169151317689 25.931669768732732 1.220798653386808 H 0.0 **** 0.06
10158 H 83.72990955021203 27.193067859629195 2.344570407155686 H 0.0 **** 0.06
10159 H 84.56107115735273 26.953010608957555 0.7891496399513329 H 0.0 **** 0.06
10160 H 84.71657596611772 25.735046288463238 2.07744968704327 H 0.0 **** 0.06
10161 C 78.00965373758629 77.20642570098326 15.089308405568687 C 0.0 **** -0.24
10162 H 76.9445668106771 77.37649504604286 14.935506871187386 H 0.0 **** 0.06
10163 H 78.53474911730454 77.30729237377068 14.138403280608472 H 0.0 **** 0.06
10164 H 78.16488174731435 76.2026755240642 15.484842920543201 H 0.0 **** 0.06
10165 H 78.39678999694708 77.939611858164 15.796986502886242 H 0.0 **** 0.06
10166 C 78.5742024490207 84.47151146628424 91.54771072655888 C 0.0 **** -0.24
10167 H 78.05037947525008 84.35751022931215 90.59798025112403 H 0.0 **** 0.06
10168 H 78.65949504141335 83.50017899439393 92.03388771614934 H 0.0 **** 0.06
10169 H 78.01640398715278 85.15241428305299 92.19020890778623 H 0.0 **** 0.06
10170 H 79.56971749324214 84.87620722460542 91.36670016398037 H 0.0 **** 0.06
10171 C 67.3842267532006 93.32782326878326 23.494284555673666 C 0.0 **** -0.24
10172 H 67.59216455270526 92.28286450585395 23.263254723683765 H 0.0 **** 0.06
10173 H 68.08600111418205 93.6790767756172 24.25048651897196 H 0.0 **** 0.06
10174 H 66.36568188952943 93.41992307654866 23.87260682135349 H 0.0 **** 0.06
10175 H 67.49135382717047 93.92801234539809 22.59108162117868 H 0.0 **** 0.06
10176 C 22.993545102946356 34.393892318680855 92.53682941541402 C 0.0 **** -0.24
10177 H 21.994429251948276 34.373694651581985 92.10017928875598 H 0.0 **** 0.06
10178 H 23.70071636184221 33.93246895410613 91.84752904684692 H 0.0 **** 0.06
10179 H 22.989373359085377 33.843478658251115 93.47730167799332 H 0.0 **** 0.06
10180 H 23.287170627080215 35.428110395790725 92.72213678884467 H 0.0 **** 0.06
10181 C 88.54381046342256 21.03942904207917 32.565382702139075 C 0.0 **** -0.24
10182 H 88.90559662845523 22.067859998423234 32.56744845401283 H 0.0 **** 0.06
10183 H 89.39132119797264 20.355858509252453 32.6124313239992 H 0.0 **** 0.06
10184 H 87.97855184309007 20.856280305140842 31.650656504291405 H 0.0 **** 0.06
10185 H 87.89816133204711 20.880156714579847 33.42913569993246 H 0.0 **** 0.06
10186 C 26.390652535879383 97.34397057469263 37.23964761471413 C 0.0 **** -0.24
10187 H 25.823602943659353 96.85081576103282 38.02883692807514 H 0.0 **** 0.06
10188 H 27.432083168953966 97.02668532487682 37.288165559340456 H 0.0 **** 0.06
10189 H 26.333057454080375 98.42537067396182 37.37195573218956 H 0.0 **** 0.06
10190 H 25.97298692857501 97.07411441308977 36.26972040288207 H 0.0 **** 0.06
10191 C 9.179994655582988 24.198802449012817 36.93993721277161 C 0.0 **** -0.24
10192 H 9.90550022436193 25.005097129316482 37.051947513656444 H 0.0 **** 0.06
10193 H 8.507319028000182 24.428454296071976 36.11337611290651 H 0.0 **** 0.06
10194 H 8.604359486322153 24.097705912192765 37.859512281822106 H 0.0 **** 0.06
10195 H 9.702998943093633 23.26507109232992 36.734070846673376 H 0.0 **** 0.06
10196 C 83.35702050930641 68.03231695236437 53.805276316899494 C 0.0 **** -0.24
10197 H 84.12085094376232 68.74542372462687 54.1173957887317 H 0.0 **** 0.06
10198 H 83.813753599829 67.05235450950542 53.66070356168643 H 0.0 **** 0.06
10199 H 82.90883094260434 68.36655528119158 52.87015038386534 H 0.0 **** 0.06
10200 H 82.58744389828715 67.9645941719713 54.57460472506074 H 0.0 **** 0.06
10201 C 77.56556588431107 41.060386111099945 40.65838894849894 C 0.0 **** -0.24
10202 H 77.8781811026673 41.95330480324816 41.1984848462763 H 0.0 **** 0.06
10203 H 77.0129917610665 40.40403411281426 41.330793296610885 H 0.0 **** 0.06
10204 H 78.44496117472801 40.53723200028986 40.28066619250074 H 0.0 **** 0.06
10205 H 76.92669466677157 41.34662486200176 39.82236281565297 H 0.0 **** 0.06
10206 C 89.94000606647523 66.0715504975511 14.516554875425982 C 0.0 **** -0.24
10207 H 90.9163451426449 65.95703840190077 14.987783810888345 H 0.0 **** 0.06
10208 H 90.02226990540129 65.8501725326614 13.451999940962537 H 0.0 **** 0.06
10209 H 89.59007882322453 67.09466587490219 14.649455213582598 H 0.0 **** 0.06
10210 H 89.23193714301402 65.38233761623653 14.977806171773409 H 0.0 **** 0.06
10211 C 57.57627868760914 76.31381697826035 10.02467886329282 C 0.0 **** -0.24
10212 H 57.30629923102763 77.05533796678571 9.273188746797018 H 0.0 **** 0.06
10213 H 57.74931096379426 76.81060251099544 10.979189031068131 H 0.0 **** 0.06
10214 H 58.48529699402915 75.79720974141068 9.713637911839953 H 0.0 **** 0.06
10215 H 56.766923114017956 75.59217024572021 10.131080049365664 H 0.0 **** 0.06
10216 C 33.18991666378895 47.906258920965776 106.39519893533627 C 0.0 **** -0.24
10217 H 32.26330065267297 47.376224549354916 106.17393425454367 H 0.0 **** 0.06
10218 H 33.02399708962557 48.98012771252284 106.30779051053837 H 0.0 **** 0.06
10219 H 33.96079042754883 47.599157177591294 105.68744337720551 H 0.0 **** 0.06
10220 H 33.5118329593607 47.66888098296214 107.40870881590763 H 0.0 **** 0.06
10221 C 97.25703788435239 98.24326570614318 93.41573852378137 C 0.0 **** -0.24
10222 H 96.20864018845425 98.36896870584627 93.14474637084875 H 0.0 **** 0.06
10223 H 97.63219519679848 99.16924120625868 93.85279929954739 H 0.0 **** 0.06
10224 H 97.83532196983133 98.00193817983597 92.52437652873523 H 0.0 **** 0.06
10225 H 97.3500863245452 97.43495046276979 94.14056686924211 H 0.0 **** 0.06
10226 C 88.0609755812891 79.95668364933582 76.8718674688946 C 0.0 **** -0.24
10227 H 88.06395911394411 80.76501867032414 76.13976750393837 H 0.0 **** 0.06
10228 H 87.86614201512333 79.01067438042915 76.36565990309944 H 0.0 **** 0.06
10229 H 87.28219781147664 80.14078338976915 77.61115166596406 H 0.0 **** 0.06
10230 H 89.03012585186625 79.9116902988633 77.36776566084757 H 0.0 **** 0.06
10231 C 101.88541308841836 91.17086651607856 80.909631067959 C 0.0 **** -0.24
10232 H 101.4715004034878 91.296149204448 79.90953647075332 H 0.0 **** 0.06
10233 H 101.43470465271926 91.8996073133245 81.58368409572114 H 0.0 **** 0.06
10234 H 102.96501805389744 91.32407645430365 80.87878262092516 H 0.0 **** 0.06
10235 H 101.67249935352548 90.1636863781762 81.26869184923505 H 0.0 **** 0.06
10236 C 81.91334013088637 81.76089910999158 22.96227055265774 C 0.0 **** -0.24
10237 H 81.10346057283789 82.37610988001579 22.570031437405234 H 0.0 **** 0.06
10238 H 81.77718093596086 80.729958911653 22.633140240945718 H 0.0 **** 0.06
10239 H 81.90263869948699 81.79833715643497 24.051729406723624 H 0.0 **** 0.06
10240 H 82.86729477995141 82.1367120049303 22.59449503676092 H 0.0 **** 0.06
10241 C 36.085580170900755 100.00562371350313 45.10454490305261 C 0.0 **** -0.24
10242 H 36.314307918611775 99.26675175887128 44.337057755474575 H 0.0 **** 0.06
10243 H 36.80650105689736 100.82106993471419 45.05092383917787 H 0.0 **** 0.06
10244 H 36.14001785240049 99.53691264968441 46.08712171182344 H 0.0 **** 0.06
10245 H 35.0806739791426 100.39666136482131 44.94484263269322 H 0.0 **** 0.06
10246 C 96.63728901921041 85.49320802572119 104.47120196471441 C 0.0 **** -0.24
10247 H 96.2648904725992 85.09388105501286 105.41404126890824 H 0.0 **** 0.06
10248 H 96.54171471062875 84.73554461588559 103.69312199519868 H 0.0 **** 0.06
10249 H 97.68574875048571 85.77076901928952 104.58330829645912 H 0.0 **** 0.06
10250 H 96.05703644591452 86.3739001899735 104.19586949102165 H 0.0 **** 0.06
10251 C 4.599304414502683 42.904269554640024 84.48612186906524 C 0.0 **** -0.24
10252 H 5.4591824909775255 42.2439409359101 84.36663718490851 H 0.0 **** 0.06
10253 H 3.772588187309111 42.347076058006564 84.92972587522902 H 0.0 **** 0.06
10254 H 4.297515623436794 43.287635563018824 83.51120302353719 H 0.0 **** 0.06
10255 H 4.868149769217013 43.73625993368782 85.13640938815644 H 0.0 **** 0.06
10256 C 52.01121879804356 53.54044281864232 49.592966070597015 C 0.0 **** -0.24
10257 H 52.875248635028925 53.87925340202465 49.02062301425076 H 0.0 **** 0.06
10258 H 51.928995970366714 54.12874218357029 50.5069288569772 H 0.0 **** 0.06
10259 H 52.13370321763222 52.48825509941605 49.845832009161484 H 0.0 **** 0.06
10260 H 51.10876828079324 53.668624239311924 48.9958385610733 H 0.0 **** 0.06
10261 C 14.939453729595073 86.52155335219501 2.3928738678227433 C 0.0 **** -0.24
10262 H 14.083361891451716 86.46519923266519 3.064593040597174 H 0.0 **** 0.06
10263 H 15.685977601992988 85.78512258394588 2.692699824385329 H 0.0 **** 0.06
10264 H 15.374024977822955 87.5199449409105 2.442490124595224 H 0.0 **** 0.06
10265 H 14.615893787181221 86.31654858069209 1.3729593315820807 H 0.0 **** 0.06
10266 C 48.46684654485613 96.96554800275291 60.68266351615836 C 0.0 **** -0.24
10267 H 49.37514032529904 97.45371847887913 61.03494418553274 H 0.0 **** 0.06
10268 H 48.697816975117256 95.9447309028811 60.377896678703024 H 0.0 **** 0.06
10269 H 48.065704791051346 97.51792228595897 59.8320962254183 H 0.0 **** 0.06
10270 H 47.729041039280986 96.94893529138577 61.484622832957456 H 0.0 **** 0.06
10271 C 104.93228248533669 7.065976316247884 7.3897736320656975 C 0.0 **** -0.24
10272 H 104.49901773717782 6.0688740370494685 7.474523007602045 H 0.0 **** 0.06
10273 H 105.78898328513185 7.147885643372774 8.060044019413937 H 0.0 **** 0.06
10274 H 104.1849437440388 7.811171208286368 7.661760897079716 H 0.0 **** 0.06
10275 H 105.25760683977924 7.234408336000939 6.36349228820697 H 0.0 **** 0.06
10276 C 31.435945282479054 22.524767174762957 75.0331054823928 C 0.0 **** -0.24
10277 H 30.64474822421056 22.18271627797438 74.36670915963902 H 0.0 **** 0.06
10278 H 31.426385263098553 21.92914317321842 75.94488246955794 H 0.0 **** 0.06
10279 H 31.272336243647032 23.57352155558513 75.28187456913724 H 0.0 **** 0.06
10280 H 32.40098107465218 22.416175954670365 74.53624266481947 H 0.0 **** 0.06
10281 C 31.3357075394335 71.45774641739624 61.264040816677806 C 0.0 **** -0.24
10282 H 32.184126739868475 70.77691122062421 61.197460130253546 H 0.0 **** 0.06
10283 H 31.28771174737507 71.88121022048324 62.26768943898372 H 0.0 **** 0.06
10284 H 30.415104430772573 70.914378512638 61.05453454740319 H 0.0 **** 0.06
10285 H 31.45725393735765 72.26095547204181 60.536660286063466 H 0.0 **** 0.06
10286 C 1.9310590940357315 53.948310901201225 12.375236768557372 C 0.0 **** -0.24
10287 H 0.8614448255393086 54.03913739608476 12.187097048817122 H 0.0 **** 0.06
10288 H 2.157700922501107 52.931950491015215 12.698062924671504 H 0.0 **** 0.06
10289 H 2.2236677245373073 54.65166939611841 13.153968854888547 H 0.0 **** 0.06
10290 H 2.4798957220838673 54.16984068767019 11.460015151330168 H 0.0 **** 0.06
10291 C 78.98384969431346 44.07560010895219 53.670510484455434 C 0.0 **** -0.24
10292 H 79.90160373023792 44.65835982837365 53.75296879426648 H 0.0 **** 0.06
10293 H 78.34778966736121 44.277501885704254 54.53304632561486 H 0.0 **** 0.06
10294 H 79.22949085562047 43.0146353016346 53.63936964366667 H 0.0 **** 0.06
10295 H 78.45759429047861 44.35366270086044 52.75751697998385 H 0.0 **** 0.06
10296 C 106.38200589512752 54.741166571293626 106.85198648867404 C 0.0 **** -0.24
10297 H 107.45314543798574 54.54890742611944 106.78936689334608 H 0.0 **** 0.06
10298 H 106.06502101686141 54.692536871797294 107.89435470824682 H 0.0 **** 0.06
10299 H 105.84461823524299 53.98977434356441 106.27263169842455 H 0.0 **** 0.06
10300 H 106.16629653544891 55.73177920613467 106.4519055241359 H 0.0 **** 0.06
10301 C 52.826999365343454 88.79858834211858 51.58430738940305 C 0.0 **** -0.24
10302 H 53.44661629603755 89.63161339743706 51.915385619573215 H 0.0 **** 0.06
10303 H 52.66928172314894 88.86926670031757 50.50720687859115 H 0.0 **** 0.06
10304 H 51.86566752657501 88.83490450414634 52.09637664306345 H 0.0 **** 0.06
10305 H 53.3282840255948 87.8592117792047 51.81679191386223 H 0.0 **** 0.06
10306 C 76.08475807521211 62.290916260147185 1.5561794860608416 C 0.0 **** -0.24
10307 H 75.51784301394025 61.37450752634919 1.721091785784381 H 0.0 **** 0.06
10308 H 75.40590655354288 63.1432464880138 1.5594144940548063 H 0.0 **** 0.06
10309 H 76.59402925492276 62.23521475295621 0.5946193648146618 H 0.0 **** 0.06
10310 H 76.82094818696865 62.40990766003475 2.3511039293143767 H 0.0 **** 0.06
10311 C 107.02163236177779 80.54451337673316 103.98563965558263 C 0.0 **** -0.24
10312 H 106.85402757820913 81.17958777695947 104.8551871375053 H 0.0 **** 0.06
10313 H 106.65543071180696 79.53916178666543 104.19386367756154 H 0.0 **** 0.06
10314 H 108.08866589477117 80.50436491950728 103.76617836319292 H 0.0 **** 0.06
10315 H 106.48941178520613 80.95592522080068 103.12744952429928 H 0.0 **** 0.06
10316 C 38.42864857240994 61.233751278602384 93.6993876582743 C 0.0 **** -0.24
10317 H 37.67913012525446 60.59110701191729 93.23743294801962 H 0.0 **** 0.06
10318 H 38.34230448948847 62.24205291032301 93.29304140361067 H 0.0 **** 0.06
10319 H 39.423555667152584 60.84078980339254 93.48897406814584 H 0.0 **** 0.06
10320 H 38.268722955164606 61.2612057392554 94.77700620548235 H 0.0 **** 0.06
10321 C 34.52440515453148 5.923452644500372 67.14077096906536 C 0.0 **** -0.24
10322 H 33.62271420238014 5.923483059936061 67.75359570428164 H 0.0 **** 0.06
10323 H 34.257696814147124 5.722544850664676 66.1027798975323 H 0.0 **** 0.06
10324 H 35.205836643627805 5.151345269752625 67.49738983444244 H 0.0 **** 0.06
10325 H 35.00922744663066 6.897005906341633 67.20959011848538 H 0.0 **** 0.06
10326 C 83.13762019378882 103.2247839638635 15.912598795523891 C 0.0 **** -0.24
10327 H 84.00521941795066 103.86486641391768 16.078191160444845 H 0.0 **** 0.06
10328 H 83.1192251897019 102.90011200369618 14.87220105771543 H 0.0 **** 0.06
10329 H 82.22713455029675 103.78189146522139 16.13684621017812 H 0.0 **** 0.06
10330 H 83.19991797843625 102.35383897185108 16.56473566463248 H 0.0 **** 0.06
10331 C 100.60469912059757 46.77545768729859 100.29383931064962 C 0.0 **** -0.24
10332 H 100.58722221343126 46.261294996258165 99.33244915536426 H 0.0 **** 0.06
10333 H 101.2242081881515 46.21335516822348 100.99393720576342 H 0.0 **** 0.06
10334 H 99.58996632454406 46.849631108549616 100.68339329892393 H 0.0 **** 0.06
10335 H 101.01898805732762 47.77547077463561 100.16353875783176 H 0.0 **** 0.06
10336 C 104.42543522598172 34.817608480726705 37.13427453544983 C 0.0 **** -0.24
10337 H 104.33943800533933 33.90440479003104 37.72269545651881 H 0.0 **** 0.06
10338 H 103.43150958121232 35.15769417550109 36.842400813866035 H 0.0 **** 0.06
10339 H 105.01868204142573 34.619502567424206 36.24184081332123 H 0.0 **** 0.06
10340 H 104.91382567187831 35.58880929021089 37.72991518994661 H 0.0 **** 0.06
10341 C 70.59328164291593 8.845113136847829 60.85606374002816 C 0.0 **** -0.24
10342 H 70.46400211401898 9.36899922543762 61.80337884000784 H 0.0 **** 0.06
10343 H 70.99609224840005 7.8493344868678605 61.04439658049347 H 0.0 **** 0.06
10344 H 71.28352569010916 9.40269855107573 60.223958279797785 H 0.0 **** 0.06
10345 H 69.62930105270219 8.758752839692647 60.354869147783006 H 0.0 **** 0.06
10346 C 17.15975697889644 97.71513696610313 85.82623179148118 C 0.0 **** -0.24
10347 H 17.194131951712677 96.9303204291762 85.07089011284214 H 0.0 **** 0.06
10348 H 16.201335589778466 97.67859547821034 86.34363187373886 H 0.0 **** 0.06
10349 H 17.277961817976575 98.68697637417753 85.34688171727274 H 0.0 **** 0.06
10350 H 17.967001153977492 97.56291737763573 86.54363112880093 H 0.0 **** 0.06
10351 C 57.720212736304916 58.33733078820958 23.321203065884934 C 0.0 **** -0.24
10352 H 58.01089726249711 57.799562978489185 24.22392064010835 H 0.0 **** 0.06
10353 H 57.92374969737574 57.717241406923975 22.448131146671567 H 0.0 **** 0.06
10354 H 58.29153942533395 59.26306354700335 23.25097208027632 H 0.0 **** 0.06
10355 H 56.65661498114497 58.568978012272744 23.363191395441948 H 0.0 **** 0.06
10356 C 103.6977686172797 34.95383852464025 43.75499605315758 C 0.0 **** -0.24
10357 H 102.77023807110318 34.47777803061123 43.43573873589702 H 0.0 **** 0.06
10358 H 104.03121374227257 34.50862821675318 44.69298479996138 H 0.0 **** 0.06
10359 H 103.52597297820982 36.02110157153831 43.899597635215116 H 0.0 **** 0.06
10360 H 104.46162550022244 34.80863513042226 42.991133276583696 H 0.0 **** 0.06
10361 C 67.10588412806493 26.95732874675842 98.68014680958392 C 0.0 **** -0.24
10362 H 66.76482030737316 25.924297123136817 98.61178128908426 H 0.0 **** 0.06
10363 H 68.18276069565906 26.997150675248776 98.51531721891203 H 0.0 **** 0.06
10364 H 66.87380976864443 27.351662191130277 99.66962917366295 H 0.0 **** 0.06
10365 H 66.600375209889 27.557324407453958 97.92307701421943 H 0.0 **** 0.06
10366 C 102.35294646853214 79.40264321570811 67.13920272186054 C 0.0 **** -0.24
10367 H 102.67906728577191 80.00560652376072 66.29160247400027 H 0.0 **** 0.06
10368 H 103.0830876155814 79.48598878681975 67.94534303959593 H 0.0 **** 0.06
10369 H 102.26856646011936 78.36097794900832 66.83133726204906 H 0.0 **** 0.06
10370 H 101.3835969486783 79.75899302345857 67.48726308274526 H 0.0 **** 0.06
10371 C 92.25713597163886 76.77800215636455 94.39935729281294 C 0.0 **** -0.24
10372 H 92.17278471747449 77.74860151154384 93.90952618780454 H 0.0 **** 0.06
10373 H 92.69133452661438 76.90911118776432 95.39136728381958 H 0.0 **** 0.06
10374 H 92.89598566591329 76.12604467563322 93.80505842954999 H 0.0 **** 0.06
10375 H 91.26678224453443 76.33184280011783 94.4926420847822 H 0.0 **** 0.06
10376 C 87.58079167612809 90.28352011389175 87.5445229457949 C 0.0 **** -0.24
10377 H 88.45170092566285 90.161252067691 88.1893759250677 H 0.0 **** 0.06
10378 H 87.4651438981553 91.33666570434829 87.28663400613908 H 0.0 **** 0.06
10379 H 86.6900574022738 89.93633525503695 88.06904547050064 H 0.0 **** 0.06
10380 H 87.71793921405313 89.69855653766334 86.63492859326004 H 0.0 **** 0.06
10381 C 46.109943595938546 69.88616866549128 99.19979525629357 C 0.0 **** -0.24
10382 H 45.427590604681285 69.16866585837889 98.74213828260186 H 0.0 **** 0.06
10383 H 47.090591116270446 69.42540480803527 99.3235687211553 H 0.0 **** 0.06
10384 H 45.723493604109876 70.18472150355487 100.17419112337261 H 0.0 **** 0.06
10385 H 46.19809933706151 70.76256643973733 98.55921729416787 H 0.0 **** 0.06
10386 C 8.982887646588978 84.28017478450025 2.02211847900179 C 0.0 **** -0.24
10387 H 9.765864579353732 83.6870038012048 1.549572164541189 H 0.0 **** 0.06
10388 H 8.434664910769087 83.65882764363886 2.7317686515658295 H 0.0 **** 0.06
10389 H 8.298290787247154 84.65194802829545 1.2595278169478377 H 0.0 **** 0.06
10390 H 9.433795181262127 85.12211009942699 2.5480643504180307 H 0.0 **** 0.06
10391 C 37.276762741796745 65.73166175487765 70.77649769928303 C 0.0 **** -0.24
10392 H 36.79014446390488 66.6180844425202 71.1841227785767 H 0.0 **** 0.06
10393 H 36.633724940509296 65.28022287482978 70.0205174990682 H 0.0 **** 0.06
10394 H 37.455045563835085 65.01482074470073 71.5784321968174 H 0.0 **** 0.06
10395 H 38.22718673077489 66.01487175747462 70.32442466005398 H 0.0 **** 0.06
10396 C 9.047247796613387 40.026636644233406 23.059630088509437 C 0.0 **** -0.24
10397 H 9.973650507357402 39.551165408306304 23.380928706827547 H 0.0 **** 0.06
10398 H 8.26763558352709 39.27084136105708 22.958922376438295 H 0.0 **** 0.06
10399 H 9.204741859002587 40.51691161829001 22.099191774519795 H 0.0 **** 0.06
10400 H 8.74338674544919 40.76672984773916 23.799594409682527 H 0.0 **** 0.06
10401 C 70.05664979156953 65.51434255625193 11.812072049443486 C 0.0 **** -0.24
10402 H 70.95020151414963 65.75491680318359 11.235993876386203 H 0.0 **** 0.06
10403 H 69.35637213834727 66.34852787936498 11.760392263936865 H 0.0 **** 0.06
10404 H 70.3324703249477 65.33537716104652 12.85158835785569 H 0.0 **** 0.06
10405 H 69.58958089835727 64.62049295205634 11.400653573574118 H 0.0 **** 0.06
10406 C 1.1565216425914855 81.80315570573936 64.35032328641381 C 0.0 **** -0.24
10407 H 0.7354715855594236 82.31845382787304 65.21476443122242 H 0.0 **** 0.06
10408 H 0.9374098704929565 82.37244615327842 63.44722245811863 H 0.0 **** 0.06
10409 H 0.7161980950815519 80.80944309071515 64.27048531251364 H 0.0 **** 0.06
10410 H 2.235767409562868 81.71414718955208 64.4718170556364 H 0.0 **** 0.06
10411 C 52.11431207109098 77.3474415926637 12.73474787030068 C 0.0 **** -0.24
10412 H 51.86963124585492 77.9876924245406 13.581923085572043 H 0.0 **** 0.06
10413 H 52.326838345758404 76.33828489403842 13.090215352970276 H 0.0 **** 0.06
10414 H 52.990769262434014 77.74321395714296 12.221423660567766 H 0.0 **** 0.06
10415 H 51.27045278240189 77.3194727224834 12.044662371006325 H 0.0 **** 0.06
10416 C 25.32188901180784 60.996294684141446 89.28911583114495 C 0.0 **** -0.24
10417 H 25.07026772144394 61.33076943838529 90.2958050064289 H 0.0 **** 0.06
10418 H 24.54239169652746 60.328437994725164 88.92352719844627 H 0.0 **** 0.06
10419 H 26.27429460448093 60.4667682371698 89.30982880094263 H 0.0 **** 0.06
10420 H 25.40002436708872 61.86065169517464 88.62890482185838 H 0.0 **** 0.06
10421 C 42.59500525365851 91.00088196282438 89.81903884656396 C 0.0 **** -0.24
10422 H 42.429437244859486 92.01907435696951 89.46653891290413 H 0.0 **** 0.06
10423 H 41.997653458794034 90.82447095403872 90.71391913281934 H 0.0 **** 0.06
10424 H 43.650855028101304 90.86566636952927 90.05406802640294 H 0.0 **** 0.06
10425 H 42.30174530437061 90.2956701804685 89.04138876478072 H 0.0 **** 0.06
10426 C 69.66889442466858 72.0825554042424 9.363888917608719 C 0.0 **** -0.24
10427 H 70.6637565309264 71.757924159362 9.059335733741932 H 0.0 **** 0.06
10428 H 68.9421663507939 71.78347146972895 8.609491973400253 H 0.0 **** 0.06
10429 H 69.65856282178113 73.1672656522564 9.470231002047768 H 0.0 **** 0.06
10430 H 69.4129787599868 71.62170609522445 10.318052322605837 H 0.0 **** 0.06
10431 C 39.23719702266118 46.1541057879317 70.46617032870356 C 0.0 **** -0.24
10432 H 39.26286253754782 45.89689991898385 69.40756648409995 H 0.0 **** 0.06
10433 H 40.25382639370798 46.176506075682234 70.85980302155383 H 0.0 **** 0.06
10434 H 38.65388001194455 45.40935520047812 71.00686108681754 H 0.0 **** 0.06
10435 H 38.77769532773635 47.13517997939667 70.59109984312826 H 0.0 **** 0.06
10436 C 30.947459999123055 2.5684199470566966 89.02684667796876 C 0.0 **** -0.24
10437 H 31.610942796209116 2.16871108364586 88.2595474283908 H 0.0 **** 0.06
10438 H 30.998841712089614 3.657377906797535 89.01921723896199 H 0.0 **** 0.06
10439 H 31.256745445277232 2.1956148112811604 90.0031701587474 H 0.0 **** 0.06
10440 H 29.924411646009304 2.251008521101994 88.823763480739 H 0.0 **** 0.06
10441 C 56.617845001583845 82.12204266742506 45.518732186685185 C 0.0 **** -0.24
10442 H 56.9856836360012 81.74050827890501 46.47071113196094 H 0.0 **** 0.06
10443 H 56.075448168531835 83.05288914037766 45.685550185576176 H 0.0 **** 0.06
10444 H 55.94990137273055 81.3888129124544 45.06709391747495 H 0.0 **** 0.06
10445 H 57.45943753870549 82.30583579481032 44.851176364299164 H 0.0 **** 0.06
10446 C 53.223075836186496 8.579541174099745 98.65506441654142 C 0.0 **** -0.24
10447 H 52.238548751824595 9.039197054382896 98.739388671928 H 0.0 **** 0.06
10448 H 53.12027825970674 7.49474231586629 98.67272178588286 H 0.0 **** 0.06
10449 H 53.84676672375676 8.90005833829963 99.48878323719175 H 0.0 **** 0.06
10450 H 53.686143653694245 8.885283507553709 97.71613385809972 H 0.0 **** 0.06
10451 C 31.65879853838146 79.68993710256663 10.483097522685568 C 0.0 **** -0.24
10452 H 31.765644969108195 80.34892826826214 9.621829758390732 H 0.0 **** 0.06
10453 H 30.92199233560956 80.10653682317566 11.169797598916674 H 0.0 **** 0.06
10454 H 32.61852436015704 79.59757553550801 10.990313786804109 H 0.0 **** 0.06
10455 H 31.327659929874415 78.70651530440371 10.147983302159886 H 0.0 **** 0.06
10456 C 14.704631511834464 96.06944215786939 101.76921354666815 C 0.0 **** -0.24
10457 H 14.637647946037703 96.71947366433376 102.64065825139807 H 0.0 **** 0.06
10458 H 14.025457069432292 95.22531521747565 101.89214658192046 H 0.0 **** 0.06
10459 H 15.7266455923058 95.70213218857565 101.66764884479937 H 0.0 **** 0.06
10460 H 14.430060267778458 96.6298126358826 100.87526987578586 H 0.0 **** 0.06
10461 C 19.653012369012544 19.46866879834394 82.46380039653502 C 0.0 **** -0.24
10462 H 19.734849196455286 20.439181693512978 82.95295390031151 H 0.0 **** 0.06
10463 H 19.415417572342506 18.7065045845101 83.20779384982 H 0.0 **** 0.06
10464 H 20.59847552685119 19.22393548014179 81.9813994700533 H 0.0 **** 0.06
10465 H 18.860476979971793 19.505024617329497 81.7160526851302 H 0.0 **** 0.06
10466 C 90.26714243391476 5.044317565490928 73.364732599706 C 0.0 **** -0.24
10467 H 90.38505309690973 3.9622369565657323 73.42110043546742 H 0.0 **** 0.06
10468 H 90.69436548085093 5.503334808490877 74.25646930987139 H 0.0 **** 0.06
10469 H 89.20775812159187 5.29234267134359 73.29990105724966 H 0.0 **** 0.06
10470 H 90.78315209853375 5.4196715743620985 72.48011563454784 H 0.0 **** 0.06
10471 C 84.31824449985666 34.57608203712988 8.263030301009849 C 0.0 **** -0.24
10472 H 83.80082594826428 33.79863081695356 7.701340592147901 H 0.0 **** 0.06
10473 H 85.07115117511711 35.04269525089012 7.628283637683026 H 0.0 **** 0.06
10474 H 84.80135768688609 34.132553974230404 9.134411545878677 H 0.0 **** 0.06
10475 H 83.6003083666746 35.3276999795724 8.58908830020377 H 0.0 **** 0.06
10476 C 101.1949992908983 45.419312327621384 87.82545657868405 C 0.0 **** -0.24
10477 H 101.13231198329743 45.48623644230756 86.73924841322537 H 0.0 **** 0.06
10478 H 100.35843885658937 45.9582521306576 88.2712348614707 H 0.0 **** 0.06
10479 H 102.13306197388067 45.86093751151529 88.1622685772906 H 0.0 **** 0.06
10480 H 101.15681681695901 44.372214873037734 88.12696571236938 H 0.0 **** 0.06
10481 C 36.94124386345675 33.435694297588384 64.13324511947026 C 0.0 **** -0.24
10482 H 37.09272924466876 33.40656029117201 63.05457414992486 H 0.0 **** 0.06
10483 H 36.20323073050119 32.68468759520243 64.41716290724943 H 0.0 **** 0.06
10484 H 36.58435526988123 34.424255975720996 64.42245102361996 H 0.0 **** 0.06
10485 H 37.884367895972815 33.227957974036826 64.63812467002387 H 0.0 **** 0.06
10486 C 100.1018921803269 78.64538905086668 38.30697885873104 C 0.0 **** -0.24
10487 H 99.65412213930625 77.84114794296511 38.889201199670396 H 0.0 **** 0.06
10488 H 101.0879766175878 78.87947733471285 38.709064544687834 H 0.0 **** 0.06
10489 H 99.46736366374012 79.52992373062374 38.36190304787414 H 0.0 **** 0.06
10490 H 100.19924024553896 78.33161302257932 37.2671573768078 H 0.0 **** 0.06
10491 C 5.527934114831666 62.62308037765257 71.44505211835616 C 0.0 **** -0.24
10492 H 4.793775213118053 62.301729896108554 70.70691037278647 H 0.0 **** 0.06
10493 H 5.545191067684172 63.71254221274057 71.48987250237411 H 0.0 **** 0.06
10494 H 6.515203744827247 62.2557303315869 71.16025666406006 H 0.0 **** 0.06
10495 H 5.259989920547454 62.2220651588255 72.42291890060176 H 0.0 **** 0.06
10496 C 18.683113425858522 54.26861014756895 44.859192295312525 C 0.0 **** -0.24
10497 H 18.3259662591571 55.22210075165174 45.24948746459148 H 0.0 **** 0.06
10498 H 19.63760001661231 54.418526194836716 44.353773385937984 H 0.0 **** 0.06
10499 H 17.955424812087827 53.871779027759146 44.15192925324139 H 0.0 **** 0.06
10500 H 18.812760292269374 53.56494925877746 45.68146946887226 H 0.0 **** 0.06
10501 C 12.6618444939987 55.685113990491914 40.31026124821029 C 0.0 **** -0.24
10502 H 12.464814775959994 55.53195356667666 41.370974144935246 H 0.0 **** 0.06
10503 H 13.570599653570554 55.15069506376845 40.0288766470776 H 0.0 **** 0.06
10504 H 12.789992005325274 56.74935720398509 40.114451974368755 H 0.0 **** 0.06
10505 H 11.82218008180422 55.30715310936363 39.7262184452614 H 0.0 **** 0.06
10506 C 9.819587328977576 19.401707219247342 94.21633869575243 C 0.0 **** -0.24
10507 H 10.300010025808843 19.393408534258953 95.19358215012281 H 0.0 **** 0.06
10508 H 10.576489817118892 19.300435089291653 93.43858083840365 H 0.0 **** 0.06
10509 H 9.285024415008365 20.342392662633657 94.08215553672031 H 0.0 **** 0.06
10510 H 9.115472361908113 18.5719518899829 94.14988614936061 H 0.0 **** 0.06
10511 C 42.51103964736978 11.839900549640902 99.11347917661297 C 0.0 **** -0.24
10512 H 41.710155228457936 11.110250673930352 99.23061109831963 H 0.0 **** 0.06
10513 H 42.868752535649605 12.146763801988584 100.09559580692276 H 0.0 **** 0.06
10514 H 42.134039042476985 12.70915845249641 98.57525532146963 H 0.0 **** 0.06
10515 H 43.33058651342225 11.390985378406185 98.55117510503949 H 0.0 **** 0.06
10516 C 104.9614574831777 95.21504267089873 77.9326744621876 C 0.0 **** -0.24
10517 H 105.66314548242673 94.83680182464062 77.18802447352496 H 0.0 **** 0.06
10518 H 104.39096798950567 94.3846118316809 78.34854831634448 H 0.0 **** 0.06
10519 H 104.28174857932191 95.92460227676659 77.46257063946021 H 0.0 **** 0.06
10520 H 105.51332770227907 95.71353664713493 78.7304010977451 H 0.0 **** 0.06
10521 C 40.27023000350829 97.70830482194867 18.3531413383634 C 0.0 **** -0.24
10522 H 39.424798800460735 98.13372858057653 18.894596277472147 H 0.0 **** 0.06
10523 H 41.199588637989905 98.11463136219288 18.754363291995304 H 0.0 **** 0.06
10524 H 40.188957143188986 97.96293909279836 17.296471185177012 H 0.0 **** 0.06
10525 H 40.26732007092221 96.62504770103851 18.467527428200782 H 0.0 **** 0.06
10526 C 60.84962917354041 65.11743659790574 48.06567617448883 C 0.0 **** -0.24
10527 H 61.49915533303083 64.34593791235358 47.6523854239951 H 0.0 **** 0.06
10528 H 59.818136053006825 64.916634183908 47.77566056423041 H 0.0 **** 0.06
10529 H 61.15281178573741 66.09107012055102 47.682360749389375 H 0.0 **** 0.06
10530 H 60.92845726372512 65.11371193346753 49.152822883516365 H 0.0 **** 0.06
10531 C 99.26353270358298 14.141770276029803 28.763996616525908 C 0.0 **** -0.24
10532 H 98.86316226540514 13.191836658284728 29.116963048905944 H 0.0 **** 0.06
10533 H 100.1944215381344 14.360842218102334 29.287850803400836 H 0.0 **** 0.06
10534 H 98.54173659006696 14.934905507008011 28.95953584977056 H 0.0 **** 0.06
10535 H 99.45497344182178 14.079469651460386 27.69336095355252 H 0.0 **** 0.06
10536 C 28.94480160081693 77.08184536957108 104.53242978445616 C 0.0 **** -0.24
10537 H 28.6459129753205 77.37749460750442 103.52687082784519 H 0.0 **** 0.06
10538 H 30.02265638148279 77.20157620082276 104.64045428197454 H 0.0 **** 0.06
10539 H 28.676398483320128 76.03830852804359 104.69866864612561 H 0.0 **** 0.06
10540 H 28.433492862847686 77.70915648235786 105.26241049438323 H 0.0 **** 0.06
10541 C 37.63003505037174 5.09619187017109 77.20547858154305 C 0.0 **** -0.24
10542 H 36.79262007875746 5.443337887959094 77.80958738907299 H 0.0 **** 0.06
10543 H 37.502434350212404 4.036539444210214 76.98231374636032 H 0.0 **** 0.06
10544 H 38.560206974545686 5.2418331005894885 77.75492242831064 H 0.0 **** 0.06
10545 H 37.66595761281749 5.662510592761036 76.27435752482825 H 0.0 **** 0.06
10546 C 46.36081878799523 49.57341862849438 100.79796624722155 C 0.0 **** -0.24
10547 H 46.4511115418345 50.62498401638106 100.52743507327722 H 0.0 **** 0.06
10548 H 45.698034787094606 49.47470094269056 101.65809468431053 H 0.0 **** 0.06
10549 H 47.344330957480786 49.17674033047825 101.04911327632612 H 0.0 **** 0.06
10550 H 45.94800689541881 49.01602821814771 99.9566725918695 H 0.0 **** 0.06
10551 C 96.68848877480883 104.33666465727481 37.786247524683574 C 0.0 **** -0.24
10552 H 96.1765199874918 103.39023923481516 37.960168733416424 H 0.0 **** 0.06
10553 H 96.00111155706632 105.04001860987306 37.31576531921442 H 0.0 **** 0.06
10554 H 97.54494953376685 104.17176728710368 37.133129239028335 H 0.0 **** 0.06
10555 H 97.03058055791328 104.74380167083723 38.7378448037997 H 0.0 **** 0.06
10556 C 24.460734956912233 104.63106714163746 101.47820219915558 C 0.0 **** -0.24
10557 H 25.545097618265345 104.63635968847291 101.36361879636509 H 0.0 **** 0.06
10558 H 24.014147716875073 104.04354305949062 100.67606318697389 H 0.0 **** 0.06
10559 H 24.086313427526306 105.65325573442783 101.43309499341471 H 0.0 **** 0.06
10560 H 24.199539195787338 104.19000305233021 102.44037420597732 H 0.0 **** 0.06
10561 C 89.92254386677777 28.664971775760677 100.47595011822318 C 0.0 **** -0.24
10562 H 90.51175893237172 28.21388580764522 99.67792334213226 H 0.0 **** 0.06
10563 H 90.17928389594377 28.195993091992186 101.42681674736241 H 0.0 **** 0.06
10564 H 88.86210523792816 28.51805007512028 100.27255737709095 H 0.0 **** 0.06
10565 H 90.13739109424351 29.7323440197625 100.52781407724035 H 0.0 **** 0.06
10566 C 75.0542468880771 69.33019258850683 88.11321389860247 C 0.0 **** -0.24
10567 H 74.76291764398118 69.22695830445778 89.15773177293681 H 0.0 **** 0.06
10568 H 75.59087871908275 70.26901196050608 87.97622786713754 H 0.0 **** 0.06
10569 H 74.1628566103598 69.32602057741741 87.48506286307612 H 0.0 **** 0.06
10570 H 75.70047900373606 68.49792488175643 87.83114067271887 H 0.0 **** 0.06
10571 C 50.1795893306956 29.17621468027363 73.05693568635473 C 0.0 **** -0.24
10572 H 50.81516003802019 30.04535088081991 72.89051513652792 H 0.0 **** 0.06
10573 H 50.35422750444899 28.44267899115627 72.27000583188328 H 0.0 **** 0.06
10574 H 49.133249227412485 29.482659994754016 73.0422250128919 H 0.0 **** 0.06
10575 H 50.41572055290085 28.734168854364384 74.02499676411601 H 0.0 **** 0.06
10576 C 24.31182035411439 41.95666327026552 39.39164399661573 C 0.0 **** -0.24
10577 H 24.973589752294174 42.047828360761216 40.25336490844279 H 0.0 **** 0.06
10578 H 24.854499187434243 42.22627393765552 38.48568291996547 H 0.0 **** 0.06
10579 H 23.45933253688594 42.62440089140016 39.51771824673028 H 0.0 **** 0.06
10580 H 23.959004920866136 40.92814802375847 39.31210538847522 H 0.0 **** 0.06
10581 C 84.21616430057301 49.40846188313432 85.31653262266374 C 0.0 **** -0.24
10582 H 83.860765493517 48.408900168984815 85.56603163156177 H 0.0 **** 0.06
10583 H 85.05324348899165 49.33402044757037 84.62179191611634 H 0.0 **** 0.06
10584 H 84.5421189263763 49.91458449475641 86.22516741594558 H 0.0 **** 0.06
10585 H 83.4089694646805 49.97589267308868 84.85391671549706 H 0.0 **** 0.06
10586 C 18.228224666285058 9.706614746963396 33.53749256404107 C 0.0 **** -0.24
10587 H 18.286802844378286 10.14883949253992 34.53261347730115 H 0.0 **** 0.06
10588 H 18.14702263738785 8.623040023648059 33.62655311884958 H 0.0 **** 0.06
10589 H 19.12705886533564 9.959305568220984 32.9749233282515 H 0.0 **** 0.06
10590 H 17.353253278696045 10.096128595588809 33.018661507467954 H 0.0 **** 0.06
10591 C 96.85180170194411 88.19675809284797 83.81844619570683 C 0.0 **** -0.24
10592 H 95.92665624366163 88.01404667063287 83.27025808740882 H 0.0 **** 0.06
10593 H 96.77488782316578 89.14092110313425 84.35706864563963 H 0.0 **** 0.06
10594 H 97.68572186719416 88.24320818602666 83.11755869595314 H 0.0 **** 0.06
10595 H 97.01857410748056 87.38601461198846 84.52866147694692 H 0.0 **** 0.06
10596 C 92.11227361413026 106.28609810996414 8.648623730201308 C 0.0 **** -0.24
10597 H 91.098055287384 106.6583854069714 8.792373694216735 H 0.0 **** 0.06
10598 H 92.32503794105534 105.51512587404828 9.390268479144652 H 0.0 **** 0.06
10599 H 92.81984375613547 107.10792225989486 8.76502534936796 H 0.0 **** 0.06
10600 H 92.20689309756264 105.86428564276122 7.648470211526217 H 0.0 **** 0.06
10601 C 54.04112309370373 19.858170393559718 96.75940339124838 C 0.0 **** -0.24
10602 H 55.09982330565475 20.034133711527275 96.56581998905119 H 0.0 **** 0.06
10603 H 53.5184487179489 19.713592871716045 95.81236660399799 H 0.0 **** 0.06
10604 H 53.61999570454384 20.718382505284083 97.27975956863679 H 0.0 **** 0.06
10605 H 53.92785064589975 18.96734325242997 97.37670723477538 H 0.0 **** 0.06
10606 C 58.97857228405618 65.6769482740954 87.52398486489489 C 0.0 **** -0.24
10607 H 58.01783440013754 65.6726190319259 88.03923014849227 H 0.0 **** 0.06
10608 H 58.81737615571918 65.83042352166666 86.45683872926793 H 0.0 **** 0.06
10609 H 59.479621630096666 64.721704608714 87.68235097147078 H 0.0 **** 0.06
10610 H 59.59886900830824 66.48228051772867 87.91778135089379 H 0.0 **** 0.06
10611 C 74.12559810650666 48.81849109391209 51.852633856993066 C 0.0 **** -0.24
10612 H 73.19920332407389 48.52471892843653 52.34670505912425 H 0.0 **** 0.06
10613 H 74.96900371400295 48.34020197279489 52.35068827912045 H 0.0 **** 0.06
10614 H 74.23752005780148 49.901272966937256 51.90410788987947 H 0.0 **** 0.06
10615 H 74.0949823498861 48.50599997877276 50.809216083940015 H 0.0 **** 0.06
10616 C 69.55353651655736 58.58874164162023 4.674871389879883 C 0.0 **** -0.24
10617 H 70.29148038557858 59.226697878173866 5.16064434824537 H 0.0 **** 0.06
10618 H 68.5793975769266 59.07906036333162 4.697336157936292 H 0.0 **** 0.06
10619 H 69.49280368714531 57.636831442041256 5.201827910962123 H 0.0 **** 0.06
10620 H 69.84848763081942 58.4135114317229 3.6405745795022995 H 0.0 **** 0.06
10621 C 35.300451867275285 92.96272241132392 66.12762537285101 C 0.0 **** -0.24
10622 H 35.97946659433461 93.44555073107938 65.42398940452455 H 0.0 **** 0.06
10623 H 35.40409365807376 91.88022185656676 66.04577985890575 H 0.0 **** 0.06
10624 H 34.27475648968024 93.24923897518205 65.89769297397271 H 0.0 **** 0.06
10625 H 35.547129275494996 93.27631497734237 67.14228378561512 H 0.0 **** 0.06
10626 C 98.23495058287017 95.64046812422657 7.599261463569052 C 0.0 **** -0.24
10627 H 98.65628258550396 96.42560734018801 6.970242757437926 H 0.0 **** 0.06
10628 H 97.3686276668301 95.20300981706285 7.102231706189572 H 0.0 **** 0.06
10629 H 97.92911825892463 96.06555627489104 8.555138732540245 H 0.0 **** 0.06
10630 H 98.98590337150597 94.86831761831698 7.768167470350056 H 0.0 **** 0.06
10631 C 97.70206819794326 73.58571437606375 90.39604103429255 C 0.0 **** -0.24
10632 H 96.87886644804526 74.02563707848017 90.95841775196365 H 0.0 **** 0.06
10633 H 97.31209414949707 72.8345714208941 89.70886694559246 H 0.0 **** 0.06
10634 H 98.40453683491886 73.11754483600009 91.08569008299469 H 0.0 **** 0.06
10635 H 98.21275215172142 74.3653422635862 89.82979548990565 H 0.0 **** 0.06
10636 C 16.99257435005066 26.38342435758879 9.345220173167917 C 0.0 **** -0.24
10637 H 17.361257694321523 26.4167123572656 8.319749436337133 H 0.0 **** 0.06
10638 H 17.125985668541418 27.36014841456469 9.809603865192088 H 0.0 **** 0.06
10639 H 17.550673147629254 25.63425212128843 9.90685831548737 H 0.0 **** 0.06
10640 H 15.934877535212053 26.123019206291364 9.342529372269354 H 0.0 **** 0.06
10641 C 92.7560432099906 63.263645298182894 18.399781367265575 C 0.0 **** -0.24
10642 H 91.88308658238441 63.57056045049734 18.975668086459564 H 0.0 **** 0.06
10643 H 92.52507184806785 63.31224917653819 17.335590310489096 H 0.0 **** 0.06
10644 H 93.02630786013378 62.242682765704984 18.667835829389517 H 0.0 **** 0.06
10645 H 93.58980185916474 63.93013231379146 18.62098102537759 H 0.0 **** 0.06
10646 C 102.22342569405376 78.67585346806995 15.86133938467782 C 0.0 **** -0.24
10647 H 101.87546119661377 78.31433704403733 14.893798542118759 H 0.0 **** 0.06
10648 H 102.70725863933407 77.86191133270152 16.400104204944796 H 0.0 **** 0.06
10649 H 101.37424985241856 79.04088882268344 16.438828150989707 H 0.0 **** 0.06
10650 H 102.93548119488915 79.48673960614587 15.710832570696198 H 0.0 **** 0.06
10651 C 13.947079251339801 104.9672037321653 97.722269959665 C 0.0 **** -0.24
10652 H 13.262067449254374 105.27530121984177 96.93264317649104 H 0.0 **** 0.06
10653 H 14.97416879963879 105.13058217000719 97.39589708378082 H 0.0 **** 0.06
10654 H 13.797211382171298 103.91016321456489 97.94034251316654 H 0.0 **** 0.06
10655 H 13.75283870906324 105.55497625044501 98.62024036715175 H 0.0 **** 0.06
10656 C 35.23837482065056 88.31538150125624 89.36047988017371 C 0.0 **** -0.24
10657 H 35.67744215237238 89.26071318307808 89.68070735733569 H 0.0 **** 0.06
10658 H 34.1608030609091 88.34226250671949 89.52319507081742 H 0.0 **** 0.06
10659 H 35.67256850529526 87.49891304535515 89.9382816223977 H 0.0 **** 0.06
10660 H 35.44244249582735 88.1596045935921 88.30172042210943 H 0.0 **** 0.06
10661 C 103.82520543099655 79.35532184574924 12.335190292238838 C 0.0 **** -0.24
10662 H 104.68601960615446 79.86887443449893 11.908203930096274 H 0.0 **** 0.06
10663 H 103.39192402628586 78.68967375258205 11.58788807631948 H 0.0 **** 0.06
10664 H 103.08056150730778 80.08984597355715 12.642996189426775 H 0.0 **** 0.06
10665 H 104.14151841325553 78.77341273442354 13.201367888951484 H 0.0 **** 0.06
10666 C 2.485808664475087 49.703638260557625 47.81914802511204 C 0.0 **** -0.24
10667 H 1.8061819581300256 50.129203356991695 47.081243852284246 H 0.0 **** 0.06
10668 H 1.912574500219307 49.148646068970095 48.56316083590252 H 0.0 **** 0.06
10669 H 3.0383642605985983 50.505060600506965 48.309688807478466 H 0.0 **** 0.06
10670 H 3.184816037993869 49.02992542706812 47.32310323063629 H 0.0 **** 0.06
10671 C 35.191315086114884 104.98329522221002 9.261707313650595 C 0.0 **** -0.24
10672 H 36.26072487241572 104.93566033982626 9.053713603977737 H 0.0 **** 0.06
10673 H 34.63539684328853 104.90626947025089 8.327808708880173 H 0.0 **** 0.06
10674 H 34.95753007341858 105.93039577218781 9.747497188339992 H 0.0 **** 0.06
10675 H 34.91329933709548 104.16028108032145 9.920220549058579 H 0.0 **** 0.06
10676 C 97.75371552134102 89.40414760722194 38.09602815915281 C 0.0 **** -0.24
10677 H 98.03015840814227 88.39612958888773 37.786850681410556 H 0.0 **** 0.06
10678 H 98.43863113595015 90.12237051779107 37.644098729800476 H 0.0 **** 0.06
10679 H 97.81210683357467 89.48017557764894 39.18085985813198 H 0.0 **** 0.06
10680 H 96.73635988593371 89.61812022854366 37.77050723215797 H 0.0 **** 0.06
10681 C 24.817905324349937 75.08976961744492 94.6065496844457 C 0.0 **** -0.24
10682 H 24.864387448299595 75.09390391803612 95.6961051362342 H 0.0 **** 0.06
10683 H 24.8306566439758 76.11608811332349 94.23875560262078 H 0.0 **** 0.06
10684 H 23.8992426877318 74.59933444338526 94.2835140201301 H 0.0 **** 0.06
10685 H 25.67773536704493 74.55030346412576 94.20855558487031 H 0.0 **** 0.06
10686 C 61.77013865802148 73.89338010719129 23.478231365544673 C 0.0 **** -0.24
10687 H 61.11297412931353 73.4550422509367 22.726561587541482 H 0.0 **** 0.06
10688 H 62.80838150747336 73.72093577732163 23.19818252284142 H 0.0 **** 0.06
10689 H 61.572886941584386 73.43212686157251 24.44623598245147 H 0.0 **** 0.06
10690 H 61.58259470519633 74.96550897905514 23.54236158276609 H 0.0 **** 0.06
10691 C 20.715990506218 78.04483508742328 100.86923328592803 C 0.0 **** -0.24
10692 H 20.979667395052612 78.95796385843636 100.33422850070338 H 0.0 **** 0.06
10693 H 21.620347665950113 77.58045577087586 101.26192358051395 H 0.0 **** 0.06
10694 H 20.218931316310044 77.355401752957 100.18736048909534 H 0.0 **** 0.06
10695 H 20.04449665594529 78.28787893176622 101.69301871235837 H 0.0 **** 0.06
10696 C 19.33513310626563 96.14496701682893 78.58826553792761 C 0.0 **** -0.24
10697 H 19.344394625534562 95.79854844754502 79.62221919003173 H 0.0 **** 0.06
10698 H 19.43874341428267 97.22960632439346 78.56881923624474 H 0.0 **** 0.06
10699 H 18.392685293744137 95.86177768868069 78.11900584897552 H 0.0 **** 0.06
10700 H 20.162816530358953 95.6897578652857 78.04554514391464 H 0.0 **** 0.06
10701 C 20.215881319936344 96.11459461570166 28.853854426571957 C 0.0 **** -0.24
10702 H 19.81787781443535 96.8924653416139 28.203443804006582 H 0.0 **** 0.06
10703 H 19.807343848169367 95.14800429790552 28.557036209225288 H 0.0 **** 0.06
10704 H 19.93591579975795 96.32577567150753 29.88594094428744 H 0.0 **** 0.06
10705 H 21.30266931117734 96.09156468502573 28.769769828869073 H 0.0 **** 0.06
10706 C 93.49944255929927 60.991984624994544 105.31902193559245 C 0.0 **** -0.24
10707 H 93.28451175413772 59.94409418711832 105.10740641127427 H 0.0 **** 0.06
10708 H 94.23871365732049 61.057402280734905 106.11740184907086 H 0.0 **** 0.06
10709 H 92.5825305984801 61.49400764168182 105.62954585366532 H 0.0 **** 0.06
10710 H 93.8895984525027 61.470537658875344 104.42098069929972 H 0.0 **** 0.06
10711 C 42.01108479212047 7.417113501622747 102.91926735565445 C 0.0 **** -0.24
10712 H 42.651967517093055 7.756600293984389 103.7329366711747 H 0.0 **** 0.06
10713 H 41.83492418715656 8.242385151783296 102.22799176816699 H 0.0 **** 0.06
10714 H 41.06015128844436 7.075216727984273 103.32623752005901 H 0.0 **** 0.06
10715 H 42.49719558798148 6.597673712093329 102.39220159432567 H 0.0 **** 0.06
10716 C 34.459009543629435 13.259662390013176 50.87217205650785 C 0.0 **** -0.24
10717 H 33.82482659334309 12.374983859482342 50.803545113717746 H 0.0 **** 0.06
10718 H 33.96008319976124 14.017808287231475 51.47522095664419 H 0.0 **** 0.06
10719 H 34.642924743563185 13.651837713560525 49.871882884914044 H 0.0 **** 0.06
10720 H 35.40774989063851 12.990333180462699 51.33758723814955 H 0.0 **** 0.06
10721 C 43.8688861883889 79.33067551754638 97.69160078947486 C 0.0 **** -0.24
10722 H 43.250326519475436 80.17911600178724 97.3985676877558 H 0.0 **** 0.06
10723 H 43.62561497151893 79.03915679069222 98.71327962800663 H 0.0 **** 0.06
10724 H 44.920493157560486 79.61081775136515 97.63340455275446 H 0.0 **** 0.06
10725 H 43.67852737336415 78.49342453115669 97.01900054837512 H 0.0 **** 0.06
10726 C 6.919834870736324 93.25948027993795 102.22701224706847 C 0.0 **** -0.24
10727 H 7.166653246580836 94.31368343828026 102.10509402583486 H 0.0 **** 0.06
10728 H 6.626203167607798 92.84078038437437 101.26461965024018 H 0.0 **** 0.06
10729 H 6.095980969668645 93.1590496554705 102.93432773066547 H 0.0 **** 0.06
10730 H 7.79048221729235 92.72397296933717 102.60641817088091 H 0.0 **** 0.06
10731 C 26.63167499281451 101.31407010837916 80.86518973821583 C 0.0 **** -0.24
10732 H 26.42049592581938 101.64623966275721 81.8812150609279 H 0.0 **** 0.06
10733 H 26.68270283606242 100.22550391779083 80.84134613702437 H 0.0 **** 0.06
10734 H 27.58398080739522 101.73074296257293 80.53794968610865 H 0.0 **** 0.06
10735 H 25.838222457127046 101.65576312733293 80.19958646368715 H 0.0 **** 0.06
10736 C 97.51044836316865 25.66243632002056 2.0664920482939806 C 0.0 **** -0.24
10737 H 98.25031670035584 25.236631340355473 1.3895189175292444 H 0.0 **** 0.06
10738 H 98.00335831173348 26.33819319984758 2.765342622100036 H 0.0 **** 0.06
10739 H 97.02153875682134 24.860672532692888 2.620263619141781 H 0.0 **** 0.06
10740 H 96.76609420742572 26.213490392629524 1.4919339614961586 H 0.0 **** 0.06
10741 C 17.230025751706506 54.093016242572084 99.80569411971767 C 0.0 **** -0.24
10742 H 16.352418685426287 53.638996069797955 99.34486415717733 H 0.0 **** 0.06
10743 H 17.771515848766015 53.33813371447893 100.37622682886743 H 0.0 **** 0.06
10744 H 16.91664059551266 54.89734304558955 100.47134031047727 H 0.0 **** 0.06
10745 H 17.879786271879894 54.49674498410578 99.02829194379336 H 0.0 **** 0.06
10746 C 56.80939497920036 19.828861082896537 17.77899578144965 C 0.0 **** -0.24
10747 H 56.8826073804876 18.741513390424927 17.771273685337036 H 0.0 **** 0.06
10748 H 56.27211573304385 20.163277910582906 16.89107228162449 H 0.0 **** 0.06
10749 H 57.81127510408447 20.25966141524094 17.78074334873382 H 0.0 **** 0.06
10750 H 56.27409183135475 20.150790852466912 18.671605672243075 H 0.0 **** 0.06
10751 C 38.23183487679455 22.77583375871677 74.84843203195013 C 0.0 **** -0.24
10752 H 37.29415979263871 22.256178253855012 75.04473100445344 H 0.0 **** 0.06
10753 H 38.10615031861602 23.443499319432362 73.996148163949 H 0.0 **** 0.06
10754 H 39.01126870950401 22.04621606866735 74.62833740868614 H 0.0 **** 0.06
10755 H 38.515969127826054 23.356450037525377 75.7265050393414 H 0.0 **** 0.06
10756 C 92.34139938098681 48.475186975328086 19.232989984854214 C 0.0 **** -0.24
10757 H 91.94722939334409 49.38604970363809 19.68349504960827 H 0.0 **** 0.06
10758 H 92.4591328531526 48.62244198347213 18.159514093250152 H 0.0 **** 0.06
10759 H 91.65060023007742 47.65265599229207 19.413707844593205 H 0.0 **** 0.06
10760 H 93.31001485769842 48.240571232375316 19.675634615451372 H 0.0 **** 0.06
10761 C 77.41762420347 55.50282696209232 21.515422051034378 C 0.0 **** -0.24
10762 H 77.23721021577651 55.03131728253429 20.549263610096105 H 0.0 **** 0.06
10763 H 77.08940449277296 56.54163998782528 21.47925536202348 H 0.0 **** 0.06
10764 H 78.48218757710508 55.46554569580977 21.745227642840803 H 0.0 **** 0.06
10765 H 76.86133447660687 54.97202038425091 22.288446536548804 H 0.0 **** 0.06
10766 C 75.57375540985386 41.23933862699917 3.1018345742633073 C 0.0 **** -0.24
10767 H 75.6349915855267 40.76239212580444 2.1234645581652956 H 0.0 **** 0.06
10768 H 74.68005283145897 41.863213844135316 3.145802777623146 H 0.0 **** 0.06
10769 H 76.45729635399435 41.85806751333581 3.259447017117594 H 0.0 **** 0.06
10770 H 75.52241125050706 40.47432328935281 3.8755392621866633 H 0.0 **** 0.06
10771 C 27.75225440678119 106.8780819925395 43.34914045063063 C 0.0 **** -0.24
10772 H 27.44005283848017 105.8441421803804 43.20218007271395 H 0.0 **** 0.06
10773 H 28.70881132077031 106.89842461618109 43.87197960967688 H 0.0 **** 0.06
10774 H 27.002417535884263 107.40215454088482 43.942926104057804 H 0.0 **** 0.06
10775 H 27.85612391109143 107.36733300079301 42.381001383057836 H 0.0 **** 0.06
10776 C 104.18587265065842 10.07010245783988 23.449276980100933 C 0.0 **** -0.24
10777 H 103.37744015092765 9.857538528767634 22.748884781650418 H 0.0 **** 0.06
10778 H 103.78134477281911 10.570936484137178 24.329640113440917 H 0.0 **** 0.06
10779 H 104.92140883544876 10.71672566068807 22.969091874314927 H 0.0 **** 0.06
10780 H 104.66232811574659 9.137357203608019 23.74763430416587 H 0.0 **** 0.06
10781 C 85.3817254846266 22.707879999371585 62.13458731300241 C 0.0 **** -0.24
10782 H 85.84994296115138 21.791820080997752 61.77299863002693 H 0.0 **** 0.06
10783 H 85.82279816584115 23.56623299541255 61.62709468606624 H 0.0 **** 0.06
10784 H 85.54199420272803 22.798200212338628 63.20932818486827 H 0.0 **** 0.06
10785 H 84.31186033785933 22.674166560550674 61.92809350637006 H 0.0 **** 0.06
10786 C 50.961851013717904 97.5537722324438 0.722205557394318 C 0.0 **** -0.24
10787 H 50.3113382403318 98.10113507545937 0.04084023122312885 H 0.0 **** 0.06
10788 H 52.00208639220234 97.79176347985727 0.5005702280261488 H 0.0 **** 0.06
10789 H 50.79916812255465 96.48260766693993 0.5985022568127789 H 0.0 **** 0.06
10790 H 50.73424508052067 97.83898759072311 1.7494798448178983 H 0.0 **** 0.06
10791 C 53.119572846840214 85.01852055302072 15.521119737904002 C 0.0 **** -0.24
10792 H 53.369621723837355 85.66798825542867 14.682946180070104 H 0.0 **** 0.06
10793 H 52.05324331497002 84.7923849042538 15.499655101677519 H 0.0 **** 0.06
10794 H 53.365958258732775 85.52055246461578 16.456001459481058 H 0.0 **** 0.06
10795 H 53.68858477787305 84.09176923895069 15.44473813859338 H 0.0 **** 0.06
10796 C 100.26917571405596 93.13948621113164 95.0324855503764 C 0.0 **** -0.24
10797 H 99.9915414774771 92.33369422358555 94.35298042821717 H 0.0 **** 0.06
10798 H 99.47226255741406 93.28963547789037 95.76146385471594 H 0.0 **** 0.06
10799 H 100.42242888258143 94.05679299182238 94.46492022717516 H 0.0 **** 0.06
10800 H 101.19129340279106 92.87461147976583 95.55069602256071 H 0.0 **** 0.06
10801 C 75.50957586716243 19.301879153706295 100.2285400927642 C 0.0 **** -0.24
10802 H 74.9174629840503 20.187410039025053 100.45913732708834 H 0.0 **** 0.06
10803 H 76.03162753704396 18.96991165757916 101.1262167405577 H 0.0 **** 0.06
10804 H 76.23717880627231 19.542280392883043 99.4527115287104 H 0.0 **** 0.06
10805 H 74.85216976899261 18.506561531498704 99.87570605257419 H 0.0 **** 0.06
10806 C 81.54338728302304 94.49476061526218 70.0485428969891 C 0.0 **** -0.24
10807 H 82.24914652878883 94.99524722215355 70.71170936406261 H 0.0 **** 0.06
10808 H 81.87425713737662 94.60425920053778 69.01603096924522 H 0.0 **** 0.06
10809 H 80.55667629696765 94.94400357815569 70.16385952976613 H 0.0 **** 0.06
10810 H 81.49247058881326 93.43629285253475 70.30322344053195 H 0.0 **** 0.06
10811 C 7.803143451171792 80.39401360557929 87.483420736664 C 0.0 **** -0.24
10812 H 7.774903718190373 79.30433125399685 87.48066347823428 H 0.0 **** 0.06
10813 H 8.050053754918466 80.75429667779076 86.48514117586438 H 0.0 **** 0.06
10814 H 8.558664914205451 80.73571676324934 88.19158528165771 H 0.0 **** 0.06
10815 H 6.828128245406816 80.7823131115193 87.77911413298266 H 0.0 **** 0.06
10816 C 54.82065949462165 19.565392245127427 44.29264340801356 C 0.0 **** -0.24
10817 H 55.678279607353375 20.23637430887031 44.24107274949381 H 0.0 **** 0.06
10818 H 53.95638218040395 20.044711849747813 43.8304905657977 H 0.0 **** 0.06
10819 H 54.59762705756424 19.341658420545443 45.33559517560616 H 0.0 **** 0.06
10820 H 55.049977226563584 18.641052753786553 43.76246835333973 H 0.0 **** 0.06
10821 C 14.032579179552968 60.14802594090864 70.97833654714124 C 0.0 **** -0.24
10822 H 14.82422652436847 60.60025379743425 70.38041666697112 H 0.0 **** 0.06
10823 H 14.327346112639333 60.14525133244942 72.02787333959785 H 0.0 **** 0.06
10824 H 13.865518309275672 59.123614836321934 70.6442762239889 H 0.0 **** 0.06
10825 H 13.115276215151866 60.72322384100974 70.859461497558 H 0.0 **** 0.06
10826 C 95.45498590329751 36.11426791057792 26.88228168735916 C 0.0 **** -0.24
10827 H 94.71459906472876 35.386753711822614 26.55214527527675 H 0.0 **** 0.06
10828 H 96.37724084469016 35.977541814024946 26.317491008394043 H 0.0 **** 0.06
10829 H 95.65446396458557 35.9725581505183 27.944636887486432 H 0.0 **** 0.06
10830 H 95.07317987093236 37.121620163498086 26.715760496884943 H 0.0 **** 0.06
10831 C 44.68803677007969 36.16757372957629 43.62532561148902 C 0.0 **** -0.24
10832 H 44.59864275450781 37.242109158363846 43.782932717413416 H 0.0 **** 0.06
10833 H 45.408257933254276 35.97466984948936 42.830388340336356 H 0.0 **** 0.06
10834 H 43.71763944883935 35.759499156131525 43.3440288769811 H 0.0 **** 0.06
10835 H 45.02757174336904 35.69318260699543 44.54683406872198 H 0.0 **** 0.06
10836 C 12.370574818801586 102.91710993940369 94.63518393508508 C 0.0 **** -0.24
10837 H 11.986860408691285 102.19483457040783 95.35555275620708 H 0.0 **** 0.06
10838 H 12.29607665351638 102.50244775140047 93.6295149857895 H 0.0 **** 0.06
10839 H 13.414245462050403 103.13557953617578 94.86172827965716 H 0.0 **** 0.06
10840 H 11.78576886930577 103.83487630655132 94.69498019977505 H 0.0 **** 0.06
10841 C 100.1905871749986 17.816763494226848 32.82190485868716 C 0.0 **** -0.24
10842 H 100.82183207669858 17.53564304695857 33.66481996175045 H 0.0 **** 0.06
10843 H 100.57338584893017 17.3560613347708 31.91157504252567 H 0.0 **** 0.06
10844 H 100.19461333915059 18.901389507186195 32.710536358164376 H 0.0 **** 0.06
10845 H 99.17139954086868 17.473327911298895 33.00251861733608 H 0.0 **** 0.06
10846 C 3.2432837673634936 30.762464441074655 87.22343891755182 C 0.0 **** -0.24
10847 H 2.805633171043553 29.764196682445593 87.21679469232453 H 0.0 **** 0.06
10848 H 3.0182716949776136 31.251634932366336 88.17219947499176 H 0.0 **** 0.06
10849 H 2.8257667011511103 31.34794070797355 86.40434567277637 H 0.0 **** 0.06
10850 H 4.324288180164274 30.68541614292417 87.10134965980203 H 0.0 **** 0.06
10851 C 55.15450058055881 33.41544463276588 102.50589156993709 C 0.0 **** -0.24
10852 H 54.36827059224996 33.87713443645589 101.9082824552132 H 0.0 **** 0.06
10853 H 55.88617994024327 34.17209957916597 102.79046027672399 H 0.0 **** 0.06
10854 H 55.64417158829998 32.63660855968652 101.92089293317528 H 0.0 **** 0.06
10855 H 54.71787899172823 32.975707964804855 103.40309723137133 H 0.0 **** 0.06
10856 C 18.39765297214421 63.92662431541885 43.830969110092155 C 0.0 **** -0.24
10857 H 17.981412572326448 63.45701070303443 44.72186734435433 H 0.0 **** 0.06
10858 H 18.23649540391489 63.279335910801535 42.969384738760525 H 0.0 **** 0.06
10859 H 19.467023015027394 64.08647570561641 43.970765307500606 H 0.0 **** 0.06
10860 H 17.906756818631045 64.88568509790787 43.662754562855625 H 0.0 **** 0.06
10861 C 58.279560434611255 44.399798926282074 52.78881813153629 C 0.0 **** -0.24
10862 H 58.291499370265285 45.39845978081979 52.354119857301384 H 0.0 **** 0.06
10863 H 58.394973440767444 43.65851454708087 51.9976841083344 H 0.0 **** 0.06
10864 H 57.331405923198076 44.23802941067743 53.30273875559254 H 0.0 **** 0.06
10865 H 59.10020448287037 44.30255256715725 53.50019372772255 H 0.0 **** 0.06
10866 C 73.45749359444042 3.221279057158881 18.13892442785606 C 0.0 **** -0.24
10867 H 73.06080289323589 3.3227999776878505 17.128491984561222 H 0.0 **** 0.06
10868 H 72.85149872380248 2.506882092545368 18.69608140486473 H 0.0 **** 0.06
10869 H 73.42849831750803 4.189775331451131 18.638447159274257 H 0.0 **** 0.06
10870 H 74.48676665435946 2.8670408177079025 18.090376455659058 H 0.0 **** 0.06
10871 C 67.44121498585031 23.044554006612387 58.94040033042123 C 0.0 **** -0.24
10872 H 67.37812939101352 22.025783896390788 59.32496560961377 H 0.0 **** 0.06
10873 H 67.46657186982002 23.019132120628093 57.8503133928823 H 0.0 **** 0.06
10874 H 68.34955423492194 23.51806846274594 59.31479001828316 H 0.0 **** 0.06
10875 H 66.57212914214676 23.611401538498807 59.27161672124254 H 0.0 **** 0.06
10876 C 80.8146415099223 95.78273828313715 82.12408423896404 C 0.0 **** -0.24
10877 H 80.23181114563715 95.50843625736543 81.24508773853437 H 0.0 **** 0.06
10878 H 80.16267431842022 96.25631207065656 82.85888381008526 H 0.0 **** 0.06
10879 H 81.60272566961004 96.47766967537994 81.83438540097993 H 0.0 **** 0.06
10880 H 81.26136888832099 94.88813447605845 82.55706385799031 H 0.0 **** 0.06
10881 C 2.2282722678434945 66.00448983064638 16.194023982564268 C 0.0 **** -0.24
10882 H 1.967092696652803 66.4597322715889 15.238423499495546 H 0.0 **** 0.06
10883 H 3.2347448611618725 66.31197659548121 16.47937561676032 H 0.0 **** 0.06
10884 H 2.192726027286745 64.91871011421352 16.10060226903521 H 0.0 **** 0.06
10885 H 1.5190285219106663 66.32679081462823 16.95621626790936 H 0.0 **** 0.06
10886 C 64.542655865504 32.44933824227679 83.42753687424431 C 0.0 **** -0.24
10887 H 65.48440387121255 31.901684561550276 83.38065522680787 H 0.0 **** 0.06
10888 H 63.93990543888309 32.06495628044326 84.25029815972363 H 0.0 **** 0.06
10889 H 64.00237113414586 32.320326315479576 82.48951392433575 H 0.0 **** 0.06
10890 H 64.74564903793696 33.50803839118277 83.58842337549925 H 0.0 **** 0.06
10891 C 85.74987056107724 87.1564028896835 72.28837430175157 C 0.0 **** -0.24
10892 H 86.6660204281149 87.4943055876706 71.80403258893342 H 0.0 **** 0.06
10893 H 85.92747224489835 86.19535495148523 72.77084005354573 H 0.0 **** 0.06
10894 H 84.96165699595647 87.04949843506805 71.5430270488002 H 0.0 **** 0.06
10895 H 85.44456523814951 87.8880831983897 73.03741059120271 H 0.0 **** 0.06
10896 C 2.3754351403958083 74.71438638276396 94.9008943637055 C 0.0 **** -0.24
10897 H 1.3297052059298409 74.9658367281225 94.72761633439268 H 0.0 **** 0.06
10898 H 3.011707596741303 75.44437882978275 94.40024168084543 H 0.0 **** 0.06
10899 H 2.580395660328122 73.71997842022932 94.50531420563354 H 0.0 **** 0.06
10900 H 2.580037953075646 74.72820926230878 95.97152470772355 H 0.0 **** 0.06
10901 C 51.151577530821534 53.424851886993686 34.964577936968595 C 0.0 **** -0.24
10902 H 51.67186379115735 52.84929306460327 34.19962374792655 H 0.0 **** 0.06
10903 H 51.87974949079131 53.87607251402818 35.63838966022814 H 0.0 **** 0.06
10904 H 50.49232528242721 52.76555553369779 35.529784561409855 H 0.0 **** 0.06
10905 H 50.56027732662186 54.208904077341685 34.489313760465706 H 0.0 **** 0.06
10906 C 38.70357802429612 1.4973971329515763 58.87316675871563 C 0.0 **** -0.24
10907 H 37.886923963485685 1.6200840333878403 59.585611734497746 H 0.0 **** 0.06
10908 H 38.40341458464516 0.7951817484368036 58.09435532681499 H 0.0 **** 0.06
10909 H 39.58268601725081 1.1125980137026517 59.39122036218902 H 0.0 **** 0.06
10910 H 38.93929916659374 2.4609543165727814 58.42268507125627 H 0.0 **** 0.06
10911 C 1.5766440293646866 20.283925241325026 57.359142823383316 C 0.0 **** -0.24
10912 H 1.8391935110822573 19.230803231416736 57.25245370480569 H 0.0 **** 0.06
10913 H 2.0234898512196224 20.678522280003932 58.27257742490668 H 0.0 **** 0.06
10914 H 0.49239051505851705 20.38411781469132 57.41281303547665 H 0.0 **** 0.06
10915 H 1.9514159218120284 20.84052623819288 56.50045775714217 H 0.0 **** 0.06
10916 C 94.75086877619415 31.022842874346907 58.430278161948316 C 0.0 **** -0.24
10917 H 95.84032821218048 31.0519537808658 58.44535777925644 H 0.0 **** 0.06
10918 H 94.41035594287328 30.681681696332532 57.45201806111827 H 0.0 **** 0.06
10919 H 94.35774789235379 32.02045828185612 58.62421666759456 H 0.0 **** 0.06
10920 H 94.3952479245427 30.336165154601247 59.198671447314794 H 0.0 **** 0.06
10921 C 74.47797234062415 6.073895891371308 53.9043533991953 C 0.0 **** -0.24
10922 H 74.55447154584033 5.059012844005565 53.51387550133374 H 0.0 **** 0.06
10923 H 74.72099013814523 6.0735853973813505 54.967243324226075 H 0.0 **** 0.06
10924 H 73.46209480264162 6.441598000586964 53.76316682083038 H 0.0 **** 0.06
10925 H 75.1758197543104 6.7212418727263525 53.37146413946042 H 0.0 **** 0.06
10926 C 34.68559852334704 26.833109672638074 29.964422813818175 C 0.0 **** -0.24
10927 H 34.154588793919345 27.091963580325256 30.88074156440382 H 0.0 **** 0.06
10928 H 35.71329141020399 27.190626473966915 30.026340183163683 H 0.0 **** 0.06
10929 H 34.189142976872546 27.300536914323402 29.112941482445024 H 0.0 **** 0.06
10930 H 34.6840961997475 25.750513632776943 29.83670329618016 H 0.0 **** 0.06
10931 C 67.02779299910412 76.47447878644255 4.346752260441363 C 0.0 **** -0.24
10932 H 66.80419054601595 77.08397243454414 3.472381603016089 H 0.0 **** 0.06
10933 H 67.35475837859514 75.48468332514904 4.026909596868549 H 0.0 **** 0.06
10934 H 66.13353790197851 76.37984002246316 4.962579365381757 H 0.0 **** 0.06
10935 H 67.81961273684146 76.94909275516298 4.9273819609855565 H 0.0 **** 0.06
10936 C 79.597030367284 64.0935049534457 13.600880501790371 C 0.0 **** -0.24
10937 H 80.23376257016147 63.310280134261674 13.190148634063611 H 0.0 **** 0.06
10938 H 79.02547325102529 64.55570222066777 12.795372026091123 H 0.0 **** 0.06
10939 H 80.21725106635851 64.84761452868268 14.08614926673981 H 0.0 **** 0.06
10940 H 78.9137465745091 63.65999853741987 14.330686038675207 H 0.0 **** 0.06
10941 C 62.60073765043529 19.25500719349526 80.22071064288174 C 0.0 **** -0.24
10942 H 61.83952708410459 20.035016943208035 80.18293464891671 H 0.0 **** 0.06
10943 H 62.67237621267827 18.867228901919617 81.23771442775657 H 0.0 **** 0.06
10944 H 63.56247890413539 19.671128373984743 79.92089632326696 H 0.0 **** 0.06
10945 H 62.32656804863319 18.447586640687916 79.5416577785502 H 0.0 **** 0.06
10946 C 82.79310694101133 12.452650978678207 77.4864411956799 C 0.0 **** -0.24
10947 H 83.03989909812617 11.399945796603902 77.34965623899114 H 0.0 **** 0.06
10948 H 81.71039856970543 12.565815472985605 77.54881207347631 H 0.0 **** 0.06
10949 H 83.17064309625974 13.026788187909233 76.64001007194969 H 0.0 **** 0.06
10950 H 83.2515150040521 12.816146978241534 78.40574983849939 H 0.0 **** 0.06
10951 C 19.492914496509457 71.60153275017659 101.24849034108644 C 0.0 **** -0.24
10952 H 20.01526680087875 72.55304193125065 101.35012732454622 H 0.0 **** 0.06
10953 H 19.927257222585695 70.87421249838094 101.93534433970557 H 0.0 **** 0.06
10954 H 19.593310406329522 71.24026695404288 100.22445838592341 H 0.0 **** 0.06
10955 H 18.4384035421636 71.73989674951594 101.48320223211654 H 0.0 **** 0.06
10956 C 39.968097898469466 22.59812702204755 106.75278766065898 C 0.0 **** -0.24
10957 H 39.600823866824605 23.56467235281727 106.4091940446491 H 0.0 **** 0.06
10958 H 40.858096038849766 22.324642553141814 106.1858676740386 H 0.0 **** 0.06
10959 H 39.196720724169566 21.842314735723107 106.60625188434113 H 0.0 **** 0.06
10960 H 40.217332494656326 22.66071942044033 107.81277590797356 H 0.0 **** 0.06
10961 C 63.85164195652807 26.423816862011876 58.86274190217193 C 0.0 **** -0.24
10962 H 64.23986617489113 27.43681347759042 58.96983313294976 H 0.0 **** 0.06
10963 H 63.94743924614552 26.105977418041192 57.82466644225363 H 0.0 **** 0.06
10964 H 62.800957039108184 26.404904391557977 59.15317994251899 H 0.0 **** 0.06
10965 H 64.41755608329545 25.748625976559794 59.504440560526035 H 0.0 **** 0.06
10966 C 106.72848508602402 70.60465698039212 32.149356865695495 C 0.0 **** -0.24
10967 H 106.37247551243856 71.54373003963883 31.72587525736617 H 0.0 **** 0.06
10968 H 107.35697768136902 70.09311952140376 31.42075329250656 H 0.0 **** 0.06
10969 H 105.87701581473166 69.9742018757043 32.40265724212219 H 0.0 **** 0.06
10970 H 107.30894746138634 70.8104397953785 33.04893098170123 H 0.0 **** 0.06
10971 C 5.527063329291508 82.92726126869661 92.15839908025661 C 0.0 **** -0.24
10972 H 5.7223482234408465 83.96956906317305 92.41150380569574 H 0.0 **** 0.06
10973 H 4.4920273012758685 82.68414187201027 92.39775042911742 H 0.0 **** 0.06
10974 H 6.194371827722932 82.2832622521133 92.730643183788 H 0.0 **** 0.06
10975 H 5.699440360201393 82.77424269919935 91.09256596427278 H 0.0 **** 0.06
10976 C 77.185924428785 16.67804659646842 59.70027972848521 C 0.0 **** -0.24
10977 H 76.7273137846949 15.712127076562524 59.491388817152135 H 0.0 **** 0.06
10978 H 78.04155137558035 16.537808553414266 60.36118558226973 H 0.0 **** 0.06
10979 H 76.45657684677688 17.329382564687478 60.182979757769964 H 0.0 **** 0.06
10980 H 77.51794435700434 17.133282765989165 58.76773993915404 H 0.0 **** 0.06
10981 C 39.250526732921685 44.52210627302511 17.951385493408964 C 0.0 **** -0.24
10982 H 40.30534033003278 44.7004734068675 17.741258933739914 H 0.0 **** 0.06
10983 H 39.13283243374468 43.537370863648775 18.404832272946578 H 0.0 **** 0.06
10984 H 38.68256921046685 44.5653198517464 17.023006010100374 H 0.0 **** 0.06
10985 H 38.883984234188404 45.284674758466224 18.63863480208377 H 0.0 **** 0.06
10986 C 25.356487861668455 52.239318976564164 26.283898407352297 C 0.0 **** -0.24
10987 H 25.92914381027336 51.313356636388356 26.334648853821307 H 0.0 **** 0.06
10988 H 24.292562541912698 52.012121057351884 26.35444446724793 H 0.0 **** 0.06
10989 H 25.558528606328775 52.74096560713017 25.337695528746053 H 0.0 **** 0.06
10990 H 25.645148848415477 52.8897054493314 27.109443055746027 H 0.0 **** 0.06
10991 C 89.67198094129955 96.39055286310682 10.280100038974666 C 0.0 **** -0.24
10992 H 88.68025102345065 96.2799948577076 9.84165574453084 H 0.0 **** 0.06
10993 H 90.01244609433448 95.42626409159496 10.657679650066939 H 0.0 **** 0.06
10994 H 89.62811788933706 97.1071830336918 11.100284739137038 H 0.0 **** 0.06
10995 H 90.36721093081438 96.75007583792987 9.521312050526959 H 0.0 **** 0.06
10996 C 33.96731885506071 1.5189072462784026 70.31301333156944 C 0.0 **** -0.24
10997 H 34.68384266878542 2.118603536558169 70.874138702502 H 0.0 **** 0.06
10998 H 33.95527845387602 1.846265461501872 69.27316461297993 H 0.0 **** 0.06
10999 H 32.97444727111801 1.6434753338002395 70.74529277828837 H 0.0 **** 0.06
11000 H 34.25604946593137 0.46964427060059677 70.36127804430939 H 0.0 **** 0.06
11001 C 39.74648989524596 97.10157484246247 91.31676201306703 C 0.0 **** -0.24
11002 H 40.20806865822087 96.12417884021323 91.18077396218376 H 0.0 **** 0.06
11003 H 40.45354068956101 97.77166071348614 91.80738292374689 H 0.0 **** 0.06
11004 H 38.85439997022049 96.99896917739022 91.934204582644 H 0.0 **** 0.06
11005 H 39.47059024750823 97.51216528736603 90.3450544357184 H 0.0 **** 0.06
11006 C 10.7467024822936 83.20012671948666 69.31705451744327 C 0.0 **** -0.24
11007 H 9.991980093761029 83.9750557979051 69.17910236903114 H 0.0 **** 0.06
11008 H 11.589070886884599 83.60955491109178 69.87531858550835 H 0.0 **** 0.06
11009 H 11.089861238614247 82.85199654415419 68.3430672827819 H 0.0 **** 0.06
11010 H 10.313875882671425 82.36677590448738 69.86992993973433 H 0.0 **** 0.06
11011 C 77.9907980046803 19.205767027805734 41.961842363810405 C 0.0 **** -0.24
11012 H 78.68016199635196 19.969452948391563 42.32455698491448 H 0.0 **** 0.06
11013 H 77.05510477761212 19.67537479521559 41.65931564991973 H 0.0 **** 0.06
11014 H 77.79717043304487 18.48591820301573 42.75677614519745 H 0.0 **** 0.06
11015 H 78.43435646414144 18.69367121704795 41.10820692555572 H 0.0 **** 0.06
11016 C 81.18915691457983 35.19243053742835 4.422006212342488 C 0.0 **** -0.24
11017 H 81.68779861049882 35.936922493365074 3.8007036033425523 H 0.0 **** 0.06
11018 H 80.97437417542565 35.622706714677264 5.400976367587246 H 0.0 **** 0.06
11019 H 81.83813828771804 34.32480535383783 4.539838351659752 H 0.0 **** 0.06
11020 H 80.25729910183748 34.88855602196017 3.9459127667582665 H 0.0 **** 0.06
11021 C 8.42764649633574 2.1354431835440977 1.3315787111404802 C 0.0 **** -0.24
11022 H 8.04838287955016 3.121742987724815 1.5994397295771137 H 0.0 **** 0.06
11023 H 9.160092859362635 2.2337192280169944 0.5304446120675834 H 0.0 **** 0.06
11024 H 7.601198601644626 1.508861285828715 0.9946532626411795 H 0.0 **** 0.06
11025 H 8.898005926976111 1.6781954730535062 2.2017587028744856 H 0.0 **** 0.06
11026 C 48.12221813361796 24.967939484340718 38.90095884550192 C 0.0 **** -0.24
11027 H 47.126316219635356 24.972689245117266 38.457917621715296 H 0.0 **** 0.06
11028 H 48.29047181157787 25.90840562556815 39.42526679421957 H 0.0 **** 0.06
11029 H 48.86881593086348 24.849945501646147 38.116204862707264 H 0.0 **** 0.06
11030 H 48.20071516942176 24.13966443553096 39.605617199408925 H 0.0 **** 0.06
11031 C 28.094809044320982 70.47711932798575 18.35434786778461 C 0.0 **** -0.24
11032 H 27.554758715954108 70.69989932329224 19.274709446307696 H 0.0 **** 0.06
11033 H 27.942663984417777 69.43044722062268 18.089151470750807 H 0.0 **** 0.06
11034 H 29.15799191107817 70.66524617855475 18.502382211750927 H 0.0 **** 0.06
11035 H 27.72153658766615 71.11319143689741 17.55197598701065 H 0.0 **** 0.06
11036 C 71.17046747970011 54.1134081568656 38.82648599145699 C 0.0 **** -0.24
11037 H 70.68005923496861 53.41404249777281 39.50391802139336 H 0.0 **** 0.06
11038 H 72.24048699371514 53.906573736345365 38.80338888257617 H 0.0 **** 0.06
11039 H 71.00519644530237 55.1331217225798 39.17489014669022 H 0.0 **** 0.06
11040 H 70.75616577736406 53.999953936196505 37.82547756273394 H 0.0 **** 0.06
11041 C 50.69298792772033 70.64596711227168 105.7233313571574 C 0.0 **** -0.24
11042 H 49.686449956398015 70.29982489616182 105.48589580521579 H 0.0 **** 0.06
11043 H 50.69451350234644 71.10754020893202 106.71066344208826 H 0.0 **** 0.06
11044 H 51.010022551102345 71.37743856735094 104.97871108239958 H 0.0 **** 0.06
11045 H 51.37949378229602 69.79893860675728 105.71525903081759 H 0.0 **** 0.06
11046 C 64.22584349729968 12.644992510096358 27.37305992096847 C 0.0 **** -0.24
11047 H 64.27642272285928 12.906916235520384 28.43015378370025 H 0.0 **** 0.06
11048 H 65.23405057913479 12.511713472446047 26.98249132900186 H 0.0 **** 0.06
11049 H 63.725786683544584 13.443999716218968 26.825003894119263 H 0.0 **** 0.06
11050 H 63.66364189227144 11.718426408476205 27.25546597260868 H 0.0 **** 0.06
11051 C 63.842588337392044 10.756991277758559 88.37496797015436 C 0.0 **** -0.24
11052 H 62.781764774688725 10.686073130307378 88.1345252609412 H 0.0 **** 0.06
11053 H 64.37701679869426 11.196386295047176 87.53134835772374 H 0.0 **** 0.06
11054 H 64.23604625437397 9.760186366639672 88.57504185751809 H 0.0 **** 0.06
11055 H 63.97470621527725 11.383666341332827 89.25570109397678 H 0.0 **** 0.06
11056 C 24.218724306355217 99.97996658154165 42.135590896845144 C 0.0 **** -0.24
11057 H 25.039878975995745 99.2943485701087 41.92797194492999 H 0.0 **** 0.06
11058 H 24.564097381383924 101.00791262655406 42.021572853773534 H 0.0 **** 0.06
11059 H 23.86528142095968 99.82608927754819 43.15473689742254 H 0.0 **** 0.06
11060 H 23.40303223916639 99.7912145431107 41.43631776530978 H 0.0 **** 0.06
11061 C 67.4783933895651 64.24888868534184 13.442277091262028 C 0.0 **** -0.24
11062 H 67.3851281592143 64.28803230497617 12.357542550090514 H 0.0 **** 0.06
11063 H 66.56142382336213 64.62404513222332 13.89984489292766 H 0.0 **** 0.06
11064 H 68.31996833970021 64.86561691239903 13.75770315900408 H 0.0 **** 0.06
11065 H 67.64561566791474 63.218698352710064 13.755815399194972 H 0.0 **** 0.06
11066 C 61.09142070291381 50.354932336176944 14.106528064901532 C 0.0 **** -0.24
11067 H 61.30699563661078 49.36471206787172 14.509020322213615 H 0.0 **** 0.06
11068 H 60.74160897301935 50.26039946480995 13.078493532523517 H 0.0 **** 0.06
11069 H 61.997562547701776 50.96001650452678 14.127877396312723 H 0.0 **** 0.06
11070 H 60.320714956219234 50.8327304232717 14.71096939818834 H 0.0 **** 0.06
11071 C 31.11380389117039 31.993885693160223 89.9247067634343 C 0.0 **** -0.24
11072 H 31.622774160425195 31.28438859182637 89.27255354614385 H 0.0 **** 0.06
11073 H 31.47203012511568 31.870287365231462 90.94611611800667 H 0.0 **** 0.06
11074 H 30.039279483400776 31.81006575747233 89.89077592223612 H 0.0 **** 0.06
11075 H 31.319545828906826 33.009606529090206 89.58736697535312 H 0.0 **** 0.06
11076 C 69.80262542911663 69.46706478278504 13.913149903080509 C 0.0 **** -0.24
11077 H 70.06482376464714 69.55382317190188 12.859023870628107 H 0.0 **** 0.06
11078 H 70.05786386925382 70.3939805371517 14.42785591888915 H 0.0 **** 0.06
11079 H 70.35669094112308 68.64055561808622 14.358039454686804 H 0.0 **** 0.06
11080 H 68.73309587989357 69.28132407181005 14.0073974538262 H 0.0 **** 0.06
11081 C 12.561097627773613 25.841446237186148 27.446260638504814 C 0.0 **** -0.24
11082 H 13.086276210283387 26.426294505287444 28.200784742790756 H 0.0 **** 0.06
11083 H 12.8447484623277 26.189772660654683 26.452450457442776 H 0.0 **** 0.06
11084 H 11.485576757183413 25.9583980769238 27.579026707001606 H 0.0 **** 0.06
11085 H 12.827273712752458 24.789280522203683 27.5520214660148 H 0.0 **** 0.06
11086 C 62.13357628457237 82.31771366224977 3.959644727276313 C 0.0 **** -0.24
11087 H 61.78190067841365 83.23531881062581 3.486551891835191 H 0.0 **** 0.06
11088 H 61.291779657972484 81.80335327981 4.422699282275914 H 0.0 **** 0.06
11089 H 62.87399904952025 82.56267867148368 4.7208647753954835 H 0.0 **** 0.06
11090 H 62.58605331070447 81.67109391069425 3.206998594319842 H 0.0 **** 0.06
11091 C 55.322833540980895 38.87868978664025 25.900134624737376 C 0.0 **** -0.24
11092 H 55.58910103492775 39.44100890798478 25.005922977056997 H 0.0 **** 0.06
11093 H 54.23973847784356 38.766233594218136 25.949220248724004 H 0.0 **** 0.06
11094 H 55.67407801314303 39.41270942404128 26.78289169292313 H 0.0 **** 0.06
11095 H 55.78881069725253 37.89405434921463 25.86197637206584 H 0.0 **** 0.06
11096 C 88.47988020505113 19.476024021102944 75.03073465315809 C 0.0 **** -0.24
11097 H 89.53178339986357 19.714308965648172 74.86970759891173 H 0.0 **** 0.06
11098 H 88.30388179706878 19.313554790889384 76.09476664651446 H 0.0 **** 0.06
11099 H 88.22362843174429 18.573288271005197 74.47788854846137 H 0.0 **** 0.06
11100 H 87.86200090444808 20.30384303569724 74.68258732264196 H 0.0 **** 0.06
11101 C 37.650031504573604 46.88755727685341 24.738852810401056 C 0.0 **** -0.24
11102 H 38.56130263479574 46.29177521577394 24.68699369101259 H 0.0 **** 0.06
11103 H 37.91186141690761 47.94110050356792 24.838855272496147 H 0.0 **** 0.06
11104 H 37.06131470335936 46.575102905458 25.60084727776332 H 0.0 **** 0.06
11105 H 37.06845849407489 46.74200482934556 23.828522636085907 H 0.0 **** 0.06
11106 C 90.26906630489503 14.578364041350937 80.96952119436651 C 0.0 **** -0.24
11107 H 90.2430947990423 14.977102216816391 81.98386979178946 H 0.0 **** 0.06
11108 H 91.22202165914973 14.078370332119576 80.79916554751148 H 0.0 **** 0.06
11109 H 90.1536094961574 15.394601440632954 80.25662153336498 H 0.0 **** 0.06
11110 H 89.45419033114086 13.86533195605061 80.83983637218972 H 0.0 **** 0.06
11111 C 49.861262139792075 6.690610040461948 97.61503493142712 C 0.0 **** -0.24
11112 H 48.81731552053347 6.975713789506386 97.75175396407374 H 0.0 **** 0.06
11113 H 50.24632534542698 6.267366277440956 98.54325677643212 H 0.0 **** 0.06
11114 H 50.44538612969376 7.570268979945752 97.34495528657217 H 0.0 **** 0.06
11115 H 49.93330770677841 5.948983136527104 96.81889943935218 H 0.0 **** 0.06
11116 C 74.80707424366626 5.046525131680861 69.54919881604977 C 0.0 **** -0.24
11117 H 74.41020464718282 5.874934784413416 70.13591226674569 H 0.0 **** 0.06
11118 H 73.98613715910435 4.522441572024343 69.06001232415824 H 0.0 **** 0.06
11119 H 75.33837810891549 4.358522984519022 70.20606250770092 H 0.0 **** 0.06
11120 H 75.49259051050299 5.432395672664368 68.7952677574722 H 0.0 **** 0.06
11121 C 21.458716852424057 68.47466393843789 46.9254809308141 C 0.0 **** -0.24
11122 H 20.60452607504078 67.90918642259581 47.29867796844634 H 0.0 **** 0.06
11123 H 22.327187852664906 68.27867356229763 47.5534535025664 H 0.0 **** 0.06
11124 H 21.226405778307846 69.5395189546145 46.947708826684085 H 0.0 **** 0.06
11125 H 21.673969630393664 68.17058609687166 45.9007396700777 H 0.0 **** 0.06
11126 C 21.72108500008258 60.37085717640226 43.57623135904055 C 0.0 **** -0.24
11127 H 21.705153446206253 61.22220829898738 42.896251853671146 H 0.0 **** 0.06
11128 H 20.947580821441534 60.49671247702483 44.33397831325115 H 0.0 **** 0.06
11129 H 22.697114219404682 60.30886798319081 44.0586959307532 H 0.0 **** 0.06
11130 H 21.5351275759501 59.45438329623189 43.01587148422473 H 0.0 **** 0.06
11131 C 18.257455415270556 17.402210906247774 94.9242116053856 C 0.0 **** -0.24
11132 H 17.992032248855452 18.395880408282494 95.28648666022019 H 0.0 **** 0.06
11133 H 18.115093692316947 16.67547421694087 95.72471062637128 H 0.0 **** 0.06
11134 H 19.30093358937293 17.397724817109264 94.61005741163537 H 0.0 **** 0.06
11135 H 17.62137435527916 17.14175623277714 94.07931760516271 H 0.0 **** 0.06
11136 C 85.98372902192145 71.55522185571083 56.54604448269943 C 0.0 **** -0.24
11137 H 85.71784261110268 72.01636989001291 57.49712944508092 H 0.0 **** 0.06
11138 H 86.29988940879673 70.5258497809416 56.71654806998624 H 0.0 **** 0.06
11139 H 86.79984097429958 72.11455577264196 56.087920494467234 H 0.0 **** 0.06
11140 H 85.11874773606367 71.56552390832324 55.88276327803571 H 0.0 **** 0.06
11141 C 42.42618435586715 7.5820356773466635 26.39467477926565 C 0.0 **** -0.24
11142 H 43.51380699880917 7.643695279441205 26.426087663609607 H 0.0 **** 0.06
11143 H 42.075615322131995 7.862640349702222 25.401185925139135 H 0.0 **** 0.06
11144 H 42.002925163006296 8.259880389686066 27.135754326888627 H 0.0 **** 0.06
11145 H 42.11369407909257 6.561554568715001 26.616072246818998 H 0.0 **** 0.06
11146 C 82.61444807620919 88.59861517789024 9.870952096823189 C 0.0 **** -0.24
11147 H 83.55835459572594 88.08283298733598 9.696516177063401 H 0.0 **** 0.06
11148 H 82.31247616265813 89.1197852655653 8.961831386568832 H 0.0 **** 0.06
11149 H 82.7383956971687 89.31992206539036 10.6793289368009 H 0.0 **** 0.06
11150 H 81.84879800262229 87.87256159513844 10.145400442371908 H 0.0 **** 0.06
11151 C 81.92547607515118 33.49516359130324 31.817694449047764 C 0.0 **** -0.24
11152 H 82.92758333594611 33.60521720791495 31.40255474628259 H 0.0 **** 0.06
11153 H 81.31171654343953 32.90870773008279 31.133577140067075 H 0.0 **** 0.06
11154 H 81.47880334723155 34.47970363291609 31.955201071943925 H 0.0 **** 0.06
11155 H 81.98559973784913 32.98484330573614 32.77948865991066 H 0.0 **** 0.06
11156 C 107.09502774337997 91.00233469790217 43.60958461980283 C 0.0 **** -0.24
11157 H 107.43035706618976 90.64002757557805 42.63672718083268 H 0.0 **** 0.06
11158 H 106.07788037415337 91.38547212448233 43.52162044650987 H 0.0 **** 0.06
11159 H 107.75564506093457 91.79975250081063 43.94719568347659 H 0.0 **** 0.06
11160 H 107.11448413238251 90.18350323599824 44.32803931169201 H 0.0 **** 0.06
11161 C 89.03561754321841 47.59989676948646 75.73922444389797 C 0.0 **** -0.24
11162 H 90.07702374760177 47.65165062335413 76.05511732493818 H 0.0 **** 0.06
11163 H 88.57166238870768 46.70879443084834 76.16256587099068 H 0.0 **** 0.06
11164 H 88.98779167077845 47.551978975695675 74.65112412745643 H 0.0 **** 0.06
11165 H 88.50622050867928 48.48621612935037 76.08786386481057 H 0.0 **** 0.06
11166 C 31.593702090175952 86.25415800175435 63.01444384925571 C 0.0 **** -0.24
11167 H 31.592026691431272 86.95458076065725 62.17997047902732 H 0.0 **** 0.06
11168 H 32.40590959340207 86.5051343023074 63.69718216495947 H 0.0 **** 0.06
11169 H 31.73541013321136 85.24116091482719 62.63810300734802 H 0.0 **** 0.06
11170 H 30.642181344770307 86.31618473871976 63.543066293783255 H 0.0 **** 0.06
11171 C 57.17142495760476 68.18477626209526 34.35361541125113 C 0.0 **** -0.24
11172 H 57.54676512897816 68.47147197777966 33.371458595154394 H 0.0 **** 0.06
11173 H 56.103140579463386 68.39904940511843 34.41025743173722 H 0.0 **** 0.06
11174 H 57.697232499403185 68.75159246529702 35.12221839495973 H 0.0 **** 0.06
11175 H 57.33756996250663 67.11912513098105 34.50984661610133 H 0.0 **** 0.06
11176 C 86.35938711256571 95.61901323561872 43.88737954330046 C 0.0 **** -0.24
11177 H 85.67385887938556 96.19204101918066 44.51147720751052 H 0.0 **** 0.06
11178 H 86.4778125770988 96.11752470266441 42.925305515553845 H 0.0 **** 0.06
11179 H 85.95667118171369 94.61820421953351 43.731139649017514 H 0.0 **** 0.06
11180 H 87.32743869743797 95.5478775788525 44.38324298507722 H 0.0 **** 0.06
11181 C 50.59588968075661 48.69433175970829 29.67925744829816 C 0.0 **** -0.24
11182 H 51.586309650986124 48.25639022037103 29.80161421856549 H 0.0 **** 0.06
11183 H 50.084833499396126 48.208601008667074 28.84676058994399 H 0.0 **** 0.06
11184 H 50.693092542415116 49.75973622090481 29.474871630747472 H 0.0 **** 0.06
11185 H 50.0191988053582 48.550169271553216 30.593503350164887 H 0.0 **** 0.06
11186 C 36.25196387493155 50.55973121521663 27.92318439966587 C 0.0 **** -0.24
11187 H 36.363401213862005 51.388680153896246 27.22372523948789 H 0.0 **** 0.06
11188 H 35.65095086693438 49.77500481300012 27.463045752632752 H 0.0 **** 0.06
11189 H 35.759797297372984 50.911910130710964 28.828828205215473 H 0.0 **** 0.06
11190 H 37.236357809457374 50.16356818279138 28.174509266093395 H 0.0 **** 0.06
11191 C 23.30582299975241 76.85993028644238 104.64056819588369 C 0.0 **** -0.24
11192 H 22.744933040118884 77.04077486449943 105.55771290384915 H 0.0 **** 0.06
11193 H 24.35913964466506 76.71690679739018 104.88178808549605 H 0.0 **** 0.06
11194 H 23.19755128244664 77.71552909697441 103.97444088818125 H 0.0 **** 0.06
11195 H 22.919871284400244 75.96575707297752 104.14942837911593 H 0.0 **** 0.06
11196 C 24.05293159247975 86.29344252348251 44.281751066434474 C 0.0 **** -0.24
11197 H 23.571165246058513 85.67722749423933 45.04095653107152 H 0.0 **** 0.06
11198 H 23.292314950319195 86.80586716807545 43.692233433401384 H 0.0 **** 0.06
11199 H 24.65453641919669 85.6611970957111 43.62873494232178 H 0.0 **** 0.06
11200 H 24.695340640176084 87.02969792676416 44.76621609789756 H 0.0 **** 0.06
11201 C 53.59597942141631 15.869033262551842 89.42906508610807 C 0.0 **** -0.24
11202 H 53.95265331234201 16.71784091249191 90.01113204280279 H 0.0 **** 0.06
11203 H 52.55242716388307 16.02690579502089 89.15604004444549 H 0.0 **** 0.06
11204 H 53.682659448406326 14.95853309357479 90.02354957446576 H 0.0 **** 0.06
11205 H 54.197740063171224 15.770515893708016 88.52584908583248 H 0.0 **** 0.06
11206 C 80.77432867894538 52.33422553256662 20.902633691714072 C 0.0 **** -0.24
11207 H 80.83486654925568 51.39087577817918 20.359931089641464 H 0.0 **** 0.06
11208 H 80.24071882553392 52.18075266175239 21.84095471294185 H 0.0 **** 0.06
11209 H 80.24130732325347 53.06725406254307 20.297392334814845 H 0.0 **** 0.06
11210 H 81.78019138175716 52.69889832990813 21.111838615484146 H 0.0 **** 0.06
11211 C 70.75361285467369 8.991019557443622 86.76592330225577 C 0.0 **** -0.24
11212 H 70.78078025877613 9.156788758118068 87.84284215040921 H 0.0 **** 0.06
11213 H 69.93324130720896 9.563253013323816 86.33100701963028 H 0.0 **** 0.06
11214 H 70.60267621429534 7.930156411413321 86.56573531114921 H 0.0 **** 0.06
11215 H 71.69650382731612 9.31430942655146 86.32522843471358 H 0.0 **** 0.06
11216 C 93.66830677236786 85.70847512399232 38.91372148883087 C 0.0 **** -0.24
11217 H 94.72093846535327 85.96067780597602 39.03733774573888 H 0.0 **** 0.06
11218 H 93.47903102589534 84.72268277653464 39.33847888247246 H 0.0 **** 0.06
11219 H 93.41855414021649 85.70155055172583 37.852394294113196 H 0.0 **** 0.06
11220 H 93.05470345800671 86.44898936173277 39.426675032999015 H 0.0 **** 0.06
11221 C 70.13798792447167 52.37907004196853 1.1013602520172014 C 0.0 **** -0.24
11222 H 70.4640357209306 52.34467727662559 0.06171911658056217 H 0.0 **** 0.06
11223 H 70.4928887192192 53.30129449387391 1.5618960420192138 H 0.0 **** 0.06
11224 H 70.54784624712124 51.52272780839712 1.6380556022532602 H 0.0 **** 0.06
11225 H 69.04985303817749 52.34732222443307 1.1418224220185635 H 0.0 **** 0.06
11226 C 69.95561967592093 4.404191474768354 82.26780251222176 C 0.0 **** -0.24
11227 H 70.76389417104342 4.188184868299714 82.96666101440213 H 0.0 **** 0.06
11228 H 70.3277652021373 4.321376584052592 81.2465306974205 H 0.0 **** 0.06
11229 H 69.58722714310971 5.415290857399524 82.43982188765891 H 0.0 **** 0.06
11230 H 69.14539879874354 3.6905982459733915 82.41811734475846 H 0.0 **** 0.06
11231 C 84.40222072839208 43.31161591320355 31.785634959009656 C 0.0 **** -0.24
11232 H 84.40975364002429 44.316595687393736 31.36377169715084 H 0.0 **** 0.06
11233 H 83.460511158901 42.82155617907837 31.53884711342775 H 0.0 **** 0.06
11234 H 84.50876760652781 43.372883273793626 32.86876135431518 H 0.0 **** 0.06
11235 H 85.23133352595701 42.73886329980023 31.371100179222253 H 0.0 **** 0.06
11236 C 43.07278048369474 25.378566647012377 17.96034818213483 C 0.0 **** -0.24
11237 H 42.80046471873149 24.955004764248713 16.99303788253146 H 0.0 **** 0.06
11238 H 44.15634803621438 25.489514536807746 18.01612181641645 H 0.0 **** 0.06
11239 H 42.73437065150074 24.714368303579676 18.75572549051302 H 0.0 **** 0.06
11240 H 42.600804438106024 26.353722481883466 18.07528017068021 H 0.0 **** 0.06
11241 C 87.64181119697406 55.91593275544888 43.088883670841795 C 0.0 **** -0.24
11242 H 87.50840106975099 56.707915996871414 42.35243886125431 H 0.0 **** 0.06
11243 H 88.05193999328017 55.03081630110018 42.60101482439357 H 0.0 **** 0.06
11244 H 86.67786474094248 55.67050212473109 43.536226726102164 H 0.0 **** 0.06
11245 H 88.32708687102115 56.253442563852516 43.86557410171543 H 0.0 **** 0.06
11246 C 87.0336217655334 59.27523990232322 99.29138578174633 C 0.0 **** -0.24
11247 H 87.34988899956348 59.70381673777589 100.24211477383747 H 0.0 **** 0.06
11248 H 87.59968892550714 59.73372595818505 98.48052252816497 H 0.0 **** 0.06
11249 H 85.96946981818003 59.4621001752393 99.1440337468431 H 0.0 **** 0.06
11250 H 87.21482635422846 58.200325518007276 99.29967323303728 H 0.0 **** 0.06
11251 C 76.14972989609873 40.56479056524256 15.710104976388259 C 0.0 **** -0.24
11252 H 76.80285923806656 41.21827008747576 16.29068951216219 H 0.0 **** 0.06
11253 H 75.220635454574 41.089131734008106 15.48486377077133 H 0.0 **** 0.06
11254 H 75.93128906745841 39.66556595323797 16.28641168713473 H 0.0 **** 0.06
11255 H 76.64626506360707 40.28879734625929 14.780095698841556 H 0.0 **** 0.06
11256 C 42.28130559126819 4.284973160515262 91.64527408250882 C 0.0 **** -0.24
11257 H 42.04514872538536 4.062342870000615 90.6047519097778 H 0.0 **** 0.06
11258 H 43.357987939913755 4.414178602601075 91.75275781613357 H 0.0 **** 0.06
11259 H 41.94826513384831 3.461691260386046 92.2771092395896 H 0.0 **** 0.06
11260 H 41.77316285052834 5.202250010068267 91.94467664814772 H 0.0 **** 0.06
11261 C 12.022421756929159 96.54181734194874 92.1753957863869 C 0.0 **** -0.24
11262 H 12.340617622146937 97.44905603901742 91.66020444216764 H 0.0 **** 0.06
11263 H 10.93530248359376 96.5311609314919 92.25376563303365 H 0.0 **** 0.06
11264 H 12.45960428758125 96.51949959711426 93.17315779048926 H 0.0 **** 0.06
11265 H 12.356630187228307 95.6699080912121 91.61291760895574 H 0.0 **** 0.06
11266 C 43.82241892860446 9.7242852584681 53.51250585268312 C 0.0 **** -0.24
11267 H 44.246763161301715 9.38140500857152 52.56855996453632 H 0.0 **** 0.06
11268 H 43.40762840057363 10.72451637773085 53.38099801373474 H 0.0 **** 0.06
11269 H 44.602495339316306 9.751047401068789 54.272622447858424 H 0.0 **** 0.06
11270 H 43.033520058899626 9.041129914662477 53.82571028027624 H 0.0 **** 0.06
11271 C 41.393822534314324 98.07479158498292 5.8087469201324495 C 0.0 **** -0.24
11272 H 40.746746679712516 97.40703287278004 6.377958542764048 H 0.0 **** 0.06
11273 H 41.350502469063514 97.8088762092147 4.752329807779915 H 0.0 **** 0.06
11274 H 42.419120568118245 97.97767766570834 6.166038882065379 H 0.0 **** 0.06
11275 H 41.05853285544768 99.10321956682185 5.939189928614326 H 0.0 **** 0.06
11276 C 1.4560629741761346 69.0232231175633 14.321049084291332 C 0.0 **** -0.24
11277 H 0.7997025161327258 68.1915514628306 14.066858468961584 H 0.0 **** 0.06
11278 H 2.476931957295946 68.78470732938189 14.022233996106294 H 0.0 **** 0.06
11279 H 1.4239529698697169 69.195178768462 15.397647886515898 H 0.0 **** 0.06
11280 H 1.12434995939536 69.920638935234 13.79942181813982 H 0.0 **** 0.06
11281 C 22.558310672226394 38.67294073863232 53.598352152280526 C 0.0 **** -0.24
11282 H 23.587971077948367 38.89928315866817 53.322621785067135 H 0.0 **** 0.06
11283 H 22.539733549907258 37.7963831583848 54.24528828968846 H 0.0 **** 0.06
11284 H 21.97712803312259 38.47351345693605 52.69813429034177 H 0.0 **** 0.06
11285 H 22.128179950055205 39.52445202901444 54.12668996385568 H 0.0 **** 0.06
11286 C 5.619831388788018 60.26442304055027 2.703218451784295 C 0.0 **** -0.24
11287 H 6.508191971802892 60.41294776345225 2.0892098237295187 H 0.0 **** 0.06
11288 H 4.729106976531897 60.470447539711074 2.1098318770179105 H 0.0 **** 0.06
11289 H 5.652909803018488 60.94034613783754 3.557341665527318 H 0.0 **** 0.06
11290 H 5.591407691856665 59.233186327243374 3.056900087141628 H 0.0 **** 0.06
11291 C 98.73615501079102 10.22956290237239 64.66930485690361 C 0.0 **** -0.24
11292 H 99.15247590002431 10.86479216113819 63.8878674731225 H 0.0 **** 0.06
11293 H 99.4858651396117 10.0677609734121 65.44352029538143 H 0.0 **** 0.06
11294 H 98.44206494148486 9.27182974616105 64.24024200875812 H 0.0 **** 0.06
11295 H 97.86280967708893 10.716138936290314 65.10465464814061 H 0.0 **** 0.06
11296 C 51.26648859920596 5.903167518574719 53.49397984504203 C 0.0 **** -0.24
11297 H 50.81335765028257 4.916728230954902 53.59276539238283 H 0.0 **** 0.06
11298 H 51.4592499923134 6.110641045388093 52.441780979593425 H 0.0 **** 0.06
11299 H 52.20469682248728 5.929367499153045 54.04758942400635 H 0.0 **** 0.06
11300 H 50.586908344404776 6.6557203682725685 53.89474364581488 H 0.0 **** 0.06
11301 C 25.553567237999857 37.755216590291525 23.62867742529943 C 0.0 **** -0.24
11302 H 26.453096468006123 37.33043629073569 23.182249822045975 H 0.0 **** 0.06
11303 H 25.785790424159586 38.13036262596333 24.625034047263142 H 0.0 **** 0.06
11304 H 24.78521746727199 36.9848770423211 23.69934105821872 H 0.0 **** 0.06
11305 H 25.191906841070534 38.57373368706962 23.00612442529558 H 0.0 **** 0.06
11306 C 77.08302691902426 42.369954002420535 72.2953591521358 C 0.0 **** -0.24
11307 H 76.68413860024026 41.35687208102182 72.23204328323854 H 0.0 **** 0.06
11308 H 76.57071661750891 42.91242629444478 73.09078277263873 H 0.0 **** 0.06
11309 H 76.92662294180664 42.88109920393671 71.34603885179015 H 0.0 **** 0.06
11310 H 78.14983021602856 42.32658462969741 72.51439687087574 H 0.0 **** 0.06
11311 C 45.43917828879026 91.2395480986402 38.77746131684694 C 0.0 **** -0.24
11312 H 46.01032295556536 90.77318397707774 39.58003652852136 H 0.0 **** 0.06
11313 H 45.4871893952907 92.32352828228126 38.8812235526306 H 0.0 **** 0.06
11314 H 44.40087374964307 90.91355094568554 38.83315887153472 H 0.0 **** 0.06
11315 H 45.86132211573832 90.9477751080141 37.81550557675543 H 0.0 **** 0.06
11316 C 89.52283025566751 81.29461449159004 95.95329618965367 C 0.0 **** -0.24
11317 H 90.58875340496085 81.5055343887013 95.86142458951647 H 0.0 **** 0.06
11318 H 89.0097631264394 82.17716966201718 96.33420321141611 H 0.0 **** 0.06
11319 H 89.37551961688509 80.46214058005 96.64255270734178 H 0.0 **** 0.06
11320 H 89.11920386258723 81.03212093686534 94.97530509350321 H 0.0 **** 0.06
11321 C 34.23041089864569 5.93360926256247 18.55446675093617 C 0.0 **** -0.24
11322 H 33.6474011404315 5.420925809499579 19.319092132120318 H 0.0 **** 0.06
11323 H 33.91832114465535 5.588668986094092 17.567939524622943 H 0.0 **** 0.06
11324 H 35.289146195363855 5.715033244893959 18.696849485631077 H 0.0 **** 0.06
11325 H 34.06744342271213 7.008380185889962 18.63211180099978 H 0.0 **** 0.06
11326 C 3.7657305547326416 95.81517328213533 71.68648690400573 C 0.0 **** -0.24
11327 H 4.711864693412309 95.59054239328339 72.17834647486211 H 0.0 **** 0.06
11328 H 3.0151090737482775 95.08570237395134 71.99111176407695 H 0.0 **** 0.06
11329 H 3.899946410162457 95.7687529942013 70.60538607281143 H 0.0 **** 0.06
11330 H 3.4378599639731817 96.81552269803734 71.96951629886473 H 0.0 **** 0.06
11331 C 29.34614656125234 7.190548790719731 54.31660689806699 C 0.0 **** -0.24
11332 H 30.06258062754805 6.990859290273704 55.113276859274876 H 0.0 **** 0.06
11333 H 29.521283346972808 6.50268157938541 53.48904328090984 H 0.0 **** 0.06
11334 H 29.466990027589162 8.215885658127164 53.96923274460569 H 0.0 **** 0.06
11335 H 28.333524215590025 7.052566696291464 54.69625891752497 H 0.0 **** 0.06
11336 C 103.66272747278 46.101683154010345 20.01533013131082 C 0.0 **** -0.24
11337 H 104.61828211342403 46.22638467944131 20.52297713902449 H 0.0 **** 0.06
11338 H 103.68790001007451 46.627203459769845 19.06050895608827 H 0.0 **** 0.06
11339 H 102.86542853679427 46.51271986454918 20.635009856065153 H 0.0 **** 0.06
11340 H 103.47873807504399 45.04102586941906 19.842255680324513 H 0.0 **** 0.06
11341 C 100.87746715765388 81.392362977568 33.02900510224717 C 0.0 **** -0.24
11342 H 100.03170744558997 80.71405062833142 32.913317567294825 H 0.0 **** 0.06
11343 H 101.76778654128958 80.94130587450275 32.590544608673866 H 0.0 **** 0.06
11344 H 101.04814910685673 81.58021320714442 34.08899928448062 H 0.0 **** 0.06
11345 H 100.6591787693618 82.33354911944451 32.5244265333975 H 0.0 **** 0.06
11346 C 64.52233029060953 89.43175366898322 14.534961900409584 C 0.0 **** -0.24
11347 H 64.58487162804336 88.35854116775414 14.351516341806615 H 0.0 **** 0.06
11348 H 63.681420282041245 89.8459734225076 13.97694742751247 H 0.0 **** 0.06
11349 H 65.44577278028304 89.91029704471242 14.210630496470571 H 0.0 **** 0.06
11350 H 64.37496438539063 89.60952198662932 15.600005749760214 H 0.0 **** 0.06
11351 C 69.83879194136355 67.13791049032447 85.0308656647511 C 0.0 **** -0.24
11352 H 70.72773890725588 67.71243637083346 85.29135177639361 H 0.0 **** 0.06
11353 H 69.00928427009445 67.81802161424001 84.84006330428161 H 0.0 **** 0.06
11354 H 69.5824819645566 66.47353906092984 85.85575564553258 H 0.0 **** 0.06
11355 H 70.03842771151582 66.54707676790755 84.13647044177657 H 0.0 **** 0.06
11356 C 98.35804927848909 52.94223509499435 98.5881572887941 C 0.0 **** -0.24
11357 H 99.28949677198732 52.94186930235168 98.02080801036072 H 0.0 **** 0.06
11358 H 97.84851620298603 53.89622207135466 98.44830860249846 H 0.0 **** 0.06
11359 H 98.5775090190343 52.79849865583596 99.64625510044334 H 0.0 **** 0.06
11360 H 97.71892094673285 52.132274779502396 98.23628233809586 H 0.0 **** 0.06
11361 C 69.41580774589389 17.33389196906748 45.93629040780769 C 0.0 **** -0.24
11362 H 68.99126453978809 16.761587519164436 46.76122276766313 H 0.0 **** 0.06
11363 H 69.28885926432099 16.77853319427365 45.00697591614295 H 0.0 **** 0.06
11364 H 70.47778980428609 17.50035997667709 46.11836523702942 H 0.0 **** 0.06
11365 H 68.90529628794133 18.29339756250576 45.86006227773515 H 0.0 **** 0.06
11366 C 56.45955391662761 58.79991216197599 87.62002982741973 C 0.0 **** -0.24
11367 H 55.520200494778095 58.25240294598723 87.54875238051204 H 0.0 **** 0.06
11368 H 56.68064863419983 59.00761701165482 88.66678219101567 H 0.0 **** 0.06
11369 H 56.374657836490854 59.74005703457926 87.07324644149674 H 0.0 **** 0.06
11370 H 57.26290226561571 58.20151479070369 87.19024880627535 H 0.0 **** 0.06
11371 C 45.203985349306386 78.05932714299797 64.59689982142046 C 0.0 **** -0.24
11372 H 44.42226682952025 78.27670296828768 65.32549344169458 H 0.0 **** 0.06
11373 H 44.98389781811214 77.11468335269493 64.09894869435949 H 0.0 **** 0.06
11374 H 46.16496054115924 77.98801952870369 65.10589745462337 H 0.0 **** 0.06
11375 H 45.24277193946756 78.85863067901514 63.85671999725416 H 0.0 **** 0.06
11376 C 60.71294585835058 32.16320664412481 87.36145119896756 C 0.0 **** -0.24
11377 H 61.45021656735915 31.93211162816744 86.59373274635335 H 0.0 **** 0.06
11378 H 59.724886981095686 31.852460606898383 87.0213228680516 H 0.0 **** 0.06
11379 H 60.71178957817095 33.23617181798832 87.55298213240856 H 0.0 **** 0.06
11380 H 60.965118486731996 31.630553778153185 88.27938293951698 H 0.0 **** 0.06
11381 C 6.002507860259968 104.82237139988004 5.222328996616305 C 0.0 **** -0.24
11382 H 4.9982563759470935 104.62440161422279 5.595052164594229 H 0.0 **** 0.06
11383 H 6.467672829611743 105.6005525378699 5.827423513338617 H 0.0 **** 0.06
11384 H 5.945986832162248 105.15392847572369 4.185403253358065 H 0.0 **** 0.06
11385 H 6.598289061806042 103.91134496182622 5.279881602979156 H 0.0 **** 0.06
11386 C 6.318877115190155 24.13195401666227 63.89457230365227 C 0.0 **** -0.24
11387 H 5.937616869306828 24.03056401632323 64.91088348610946 H 0.0 **** 0.06
11388 H 5.8378130774298 24.98072038947146 63.40905328440502 H 0.0 **** 0.06
11389 H 6.104120627103162 23.22192801286348 63.33413582892237 H 0.0 **** 0.06
11390 H 7.397305077641118 24.2932904838497 63.92632873389175 H 0.0 **** 0.06
11391 C 88.64537660258407 11.611170611860501 105.40188346295446 C 0.0 **** -0.24
11392 H 89.35902704177037 12.43121389067477 105.33088544035871 H 0.0 **** 0.06
11393 H 87.7915156882352 11.815101968122065 104.755436814574 H 0.0 **** 0.06
11394 H 88.30595642515392 11.514915382532749 106.43374810161092 H 0.0 **** 0.06
11395 H 89.12461113801062 10.684137586854732 105.08863484695628 H 0.0 **** 0.06
11396 C 62.78569086547046 58.95056729542466 6.704922785938209 C 0.0 **** -0.24
11397 H 63.78537363682295 59.046710718698705 7.12940427896082 H 0.0 **** 0.06
11398 H 62.39712949462964 59.94056370411636 6.464427637645869 H 0.0 **** 0.06
11399 H 62.128717208183474 58.46842937032659 7.428962392169751 H 0.0 **** 0.06
11400 H 62.83317183185909 58.34715468707594 5.798628974849308 H 0.0 **** 0.06
11401 C 57.612137120045894 65.60610801627169 0.056925928421833305 C 0.0 **** -0.24
11402 H 57.78598890392787 65.63099498203655 1.1325377955986369 H 0.0 **** 0.06
11403 H 58.06571698232307 66.48322934209438 -0.4047180899526097 H 0.0 **** 0.06
11404 H 56.540332675430484 65.60585174688481 -0.1373697252340662 H 0.0 **** 0.06
11405 H 58.057771987294956 64.70350834113384 -0.36110648103738185 H 0.0 **** 0.06
11406 C 68.88338250501619 51.93024864079854 73.20013579154705 C 0.0 **** -0.24
11407 H 69.01284982756903 53.012346506715176 73.16854219166382 H 0.0 **** 0.06
11408 H 68.29749241254183 51.61035130693881 72.33864279252418 H 0.0 **** 0.06
11409 H 68.36480911795599 51.65323458717717 74.1168911957789 H 0.0 **** 0.06
11410 H 69.86050473259832 51.44701640705688 73.17408761736608 H 0.0 **** 0.06
11411 C 61.17373489044587 82.92553730645477 48.858087852976084 C 0.0 **** -0.24
11412 H 60.38287615472598 83.54379567702415 49.28145967692167 H 0.0 **** 0.06
11413 H 60.85061372959831 81.88434249543673 48.83973514955283 H 0.0 **** 0.06
11414 H 62.07203244158654 83.01632041244028 49.46771936953976 H 0.0 **** 0.06
11415 H 61.38944159979832 83.2575140917063 47.84245320226062 H 0.0 **** 0.06
11416 C 81.00632417257265 16.95538705032871 1.5800600741339963 C 0.0 **** -0.24
11417 H 80.77567239266172 15.899707698395389 1.7213595702166913 H 0.0 **** 0.06
11418 H 80.47704988196557 17.328344195653017 0.7022004717399852 H 0.0 **** 0.06
11419 H 82.07937207617134 17.076966598359405 1.436274604029805 H 0.0 **** 0.06
11420 H 80.69142966178596 17.516537282529413 2.4594795076965568 H 0.0 **** 0.06
11421 C 49.621344123454435 54.63183268218129 29.52943090042824 C 0.0 **** -0.24
11422 H 49.38092533714837 53.808460920354385 30.20125856425213 H 0.0 **** 0.06
11423 H 50.44549533469092 55.21123806174719 29.94394969695685 H 0.0 **** 0.06
11424 H 48.74682557298638 55.27343440711491 29.4141689672785 H 0.0 **** 0.06
11425 H 49.90937885401803 54.23427344076716 28.55581167818154 H 0.0 **** 0.06
11426 C 94.60910817122334 52.425796313488654 82.74122934856435 C 0.0 **** -0.24
11427 H 94.27804001593084 51.48054719457802 82.31148678353156 H 0.0 **** 0.06
11428 H 93.96272965825878 53.230141381130004 82.39004487054548 H 0.0 **** 0.06
11429 H 95.63622888112413 52.62392608821076 82.43586347244499 H 0.0 **** 0.06
11430 H 94.55861297224075 52.36784561079105 83.82919567441354 H 0.0 **** 0.06
11431 C 40.29022460687946 83.53533127219234 13.675647765727245 C 0.0 **** -0.24
11432 H 40.385510925464956 83.44474448706174 12.593557998758413 H 0.0 **** 0.06
11433 H 39.396089347645585 84.11218698354082 13.914692516137123 H 0.0 **** 0.06
11434 H 41.16821109340407 84.04168866053189 14.075979634768295 H 0.0 **** 0.06
11435 H 40.210089122577045 82.54202676160494 14.117118211677521 H 0.0 **** 0.06
11436 C 61.700068847245845 100.42960051751339 49.11085782506865 C 0.0 **** -0.24
11437 H 60.74174201034326 100.88780684286553 49.35227090726033 H 0.0 **** 0.06
11438 H 62.31617738655211 101.14396378250655 48.564551031818496 H 0.0 **** 0.06
11439 H 61.534952952624394 99.54611072057878 48.493432307201374 H 0.0 **** 0.06
11440 H 62.20666547350669 100.14104399559278 50.03090055235947 H 0.0 **** 0.06
11441 C 85.61238217764976 60.77843947714139 87.2068538356653 C 0.0 **** -0.24
11442 H 84.56319948912943 60.66589173230567 87.48066656974888 H 0.0 **** 0.06
11443 H 85.84202752542399 61.8357493893256 87.07478010515499 H 0.0 **** 0.06
11444 H 85.80319252464818 60.2456897711038 86.27507441693186 H 0.0 **** 0.06
11445 H 86.2396776921228 60.36457818431232 87.99616420603698 H 0.0 **** 0.06
11446 C 55.021293904664816 36.27241833464207 87.74754214038185 C 0.0 **** -0.24
11447 H 54.14858143416663 35.76104755908755 87.34322108979038 H 0.0 **** 0.06
11448 H 55.66558700621266 35.55043946986717 88.24980268014141 H 0.0 **** 0.06
11449 H 54.69934868806422 37.03112734515681 88.46124281129386 H 0.0 **** 0.06
11450 H 55.57249108009481 36.74744020842674 86.93630384243829 H 0.0 **** 0.06
11451 C 42.01537857525926 33.948920261741335 40.55792629141515 C 0.0 **** -0.24
11452 H 42.01305277458732 34.944707003915795 40.11355358040416 H 0.0 **** 0.06
11453 H 41.105805065729385 33.42114674369381 40.26917050453193 H 0.0 **** 0.06
11454 H 42.055306629807404 34.03731822231606 41.64354834941917 H 0.0 **** 0.06
11455 H 42.885419314089546 33.3955411880483 40.20571558506767 H 0.0 **** 0.06
11456 C 41.192435234694514 76.33585140392299 51.9816571314007 C 0.0 **** -0.24
11457 H 40.31806726476748 75.7024770982997 51.83057315436786 H 0.0 **** 0.06
11458 H 41.170846590430045 76.75044282946709 52.98982557846308 H 0.0 **** 0.06
11459 H 41.183046159999606 77.14774607407713 51.2544160442225 H 0.0 **** 0.06
11460 H 42.09724640341156 75.7414952483742 51.851406397530404 H 0.0 **** 0.06
11461 C 105.4826770856661 74.2222972804712 74.45084305224631 C 0.0 **** -0.24
11462 H 104.63445390862674 74.43913510589215 73.80209774550627 H 0.0 **** 0.06
11463 H 106.39139152703376 74.63371510242166 74.01065879685044 H 0.0 **** 0.06
11464 H 105.58974336252462 73.14333298262665 74.56203908861059 H 0.0 **** 0.06
11465 H 105.31637595763684 74.67391705342487 75.42934561634351 H 0.0 **** 0.06
11466 C 73.74352183863908 10.430648085657296 16.912799125907696 C 0.0 **** -0.24
11467 H 72.73472878448547 10.552292190227448 16.51861264584352 H 0.0 **** 0.06
11468 H 74.40057917588439 11.17877245349365 16.468563463952734 H 0.0 **** 0.06
11469 H 74.11145788182353 9.433334260699723 16.669377755634486 H 0.0 **** 0.06
11470 H 73.72749015309108 10.55751269176703 17.995870741080353 H 0.0 **** 0.06
11471 C 18.288488476682573 17.667844253329342 75.56820203790959 C 0.0 **** -0.24
11472 H 19.09765448773034 17.21547782081721 74.99443666156014 H 0.0 **** 0.06
11473 H 17.480265570291493 16.94620468893365 75.68778794229314 H 0.0 **** 0.06
11474 H 17.917396711885928 18.54661625383068 75.03989963941092 H 0.0 **** 0.06
11475 H 18.659397360505295 17.96406567263479 76.54911954263608 H 0.0 **** 0.06
11476 C 78.78354017883143 86.04778003523376 15.304014765055513 C 0.0 **** -0.24
11477 H 78.49320008649943 85.53184430444736 14.38903026219964 H 0.0 **** 0.06
11478 H 79.68627530925798 86.63161395494268 15.119938644255683 H 0.0 **** 0.06
11479 H 78.97588090415948 85.31640334522967 16.08832901442554 H 0.0 **** 0.06
11480 H 77.97809540503812 86.71298378614654 15.616018636133788 H 0.0 **** 0.06
11481 C 16.45095110498147 101.77848231249936 52.514315140929 C 0.0 **** -0.24
11482 H 16.399644899132227 102.38119758453995 51.60729325384109 H 0.0 **** 0.06
11483 H 16.460573917475216 102.43410861016069 53.3854060063465 H 0.0 **** 0.06
11484 H 17.360770554642272 101.17898576132305 52.50041811758917 H 0.0 **** 0.06
11485 H 15.583036626195991 101.12080698767333 52.56337976459487 H 0.0 **** 0.06
11486 C 82.78391247175531 52.38666673907362 30.356093619851862 C 0.0 **** -0.24
11487 H 83.42346289747161 51.55919418308223 30.659891305527253 H 0.0 **** 0.06
11488 H 83.36122697192206 53.09141094650194 29.756594383013358 H 0.0 **** 0.06
11489 H 82.39913354549293 52.892672612862896 31.24170694118228 H 0.0 **** 0.06
11490 H 81.95147585217546 52.004324509251816 29.7647667785574 H 0.0 **** 0.06
11491 C 14.109040076043186 68.58748679709277 52.04683426200771 C 0.0 **** -0.24
11492 H 15.096258688825742 69.0483629865625 52.01080281487873 H 0.0 **** 0.06
11493 H 13.34866595542627 69.36397383357445 52.139423994116754 H 0.0 **** 0.06
11494 H 14.051258417339909 67.91862581124639 52.90638940008458 H 0.0 **** 0.06
11495 H 13.939910956319238 68.01902429804022 51.13213297169102 H 0.0 **** 0.06
11496 C 69.78715735140746 88.43878039952676 82.24121432698368 C 0.0 **** -0.24
11497 H 69.40719629004234 88.2774502693978 83.25019445746699 H 0.0 **** 0.06
11498 H 70.34802500429583 87.56085149638776 81.91991688615425 H 0.0 **** 0.06
11499 H 70.4418240059468 89.31054089324456 82.2357423528158 H 0.0 **** 0.06
11500 H 68.95188605701011 88.60689646538438 81.56192386848707 H 0.0 **** 0.06
11501 C 2.570461205769808 44.15272735780451 101.35125774826912 C 0.0 **** -0.24
11502 H 2.7412347942056368 45.16272100067158 100.97762027047315 H 0.0 **** 0.06
11503 H 3.344798717242525 43.89809299948453 102.07539689370583 H 0.0 **** 0.06
11504 H 2.6037285261482346 43.447994756012264 100.52031313024924 H 0.0 **** 0.06
11505 H 1.5939427288253674 44.10360198530569 101.83116501724453 H 0.0 **** 0.06
11506 C 6.689271379407501 9.897002779259168 87.00136480407241 C 0.0 **** -0.24
11507 H 7.610891149303313 10.386152198594246 87.31734671910783 H 0.0 **** 0.06
11508 H 6.007499511487197 10.639623419940335 86.58723270237567 H 0.0 **** 0.06
11509 H 6.221705929703546 9.413631387217734 87.85987013885938 H 0.0 **** 0.06
11510 H 6.917542680944223 9.14870232903911 86.24264790139148 H 0.0 **** 0.06
11511 C 33.99173446252513 8.289671101711718 53.01827019392472 C 0.0 **** -0.24
11512 H 33.484624256715875 8.423831268713144 52.063031493515446 H 0.0 **** 0.06
11513 H 34.840632372856675 8.970275252390223 53.07721083628426 H 0.0 **** 0.06
11514 H 34.342140014689164 7.261555799982148 53.10233282507745 H 0.0 **** 0.06
11515 H 33.29621319247522 8.503983750211972 53.83051462731412 H 0.0 **** 0.06
11516 C 90.420159572015 77.12423175577347 14.958860431718819 C 0.0 **** -0.24
11517 H 89.80280324598573 77.77202557443071 14.334935650944757 H 0.0 **** 0.06
11518 H 89.92091802219056 76.16437568592423 15.08981420033497 H 0.0 **** 0.06
11519 H 90.56941856554454 77.59301756441369 15.931974179718395 H 0.0 **** 0.06
11520 H 91.38619087760787 76.97026107509826 14.477873673930105 H 0.0 **** 0.06
11521 C 64.25123435818233 48.28233729439584 11.710436009734536 C 0.0 **** -0.24
11522 H 63.54766031456376 48.285319431549816 12.542969721301176 H 0.0 **** 0.06
11523 H 63.69980908595085 48.271069552536744 10.770049954033723 H 0.0 **** 0.06
11524 H 64.88384560605215 47.39685879160256 11.771070407639954 H 0.0 **** 0.06
11525 H 64.87229896157291 49.177152678682575 11.757275278348004 H 0.0 **** 0.06
11526 C 70.89931658228488 15.368139121420683 100.16074254369315 C 0.0 **** -0.24
11527 H 70.26712604338331 15.061880302230378 99.32616633281485 H 0.0 **** 0.06
11528 H 71.26296057000292 16.3809637353732 99.98784936430508 H 0.0 **** 0.06
11529 H 71.74626812530425 14.686282881238668 100.24233234717981 H 0.0 **** 0.06
11530 H 70.32034327143583 15.34160673265636 101.08356355438855 H 0.0 **** 0.06
11531 C 72.42559477786915 86.50092821362188 60.44571454091471 C 0.0 **** -0.24
11532 H 71.65037253063667 85.74199321500934 60.33447201793928 H 0.0 **** 0.06
11533 H 72.40334413967526 87.169996177126 59.58511085277388 H 0.0 **** 0.06
11534 H 73.4007531040998 86.01699982246352 60.5055834478124 H 0.0 **** 0.06
11535 H 72.24556324217082 87.07229678982992 61.356077260910354 H 0.0 **** 0.06
11536 C 93.82926140049972 99.60401340203278 88.85869341586579 C 0.0 **** -0.24
11537 H 94.02801453842551 100.1646215148145 89.77210813092984 H 0.0 **** 0.06
11538 H 93.02746477223656 98.88699038352213 89.03930608156736 H 0.0 **** 0.06
11539 H 94.7306278322701 99.07181089462547 88.5553475135869 H 0.0 **** 0.06
11540 H 93.53031839222075 100.29209140432361 88.06744220139231 H 0.0 **** 0.06
11541 C 49.19067593690295 65.95157217259683 56.67011846216495 C 0.0 **** -0.24
11542 H 48.11374161845208 66.12433057087122 56.67921742484438 H 0.0 **** 0.06
11543 H 49.38877404820681 64.91455586474976 56.39522371867949 H 0.0 **** 0.06
11544 H 49.59866804538976 66.15017828666242 57.66095585437061 H 0.0 **** 0.06
11545 H 49.65841426324312 66.61561085923356 55.944209292875 H 0.0 **** 0.06
11546 C 93.87506871860123 71.24396967112372 91.51237928272423 C 0.0 **** -0.24
11547 H 93.27762324169385 70.36667954247679 91.76208045945492 H 0.0 **** 0.06
11548 H 94.20179754218165 71.7334234017352 92.43081061296795 H 0.0 **** 0.06
11549 H 93.27291593477102 71.93756895364116 90.92531814708303 H 0.0 **** 0.06
11550 H 94.74633777756992 70.9379742776904 90.93383479557406 H 0.0 **** 0.06
11551 C 81.3340780519004 104.2793691482712 54.18713317785614 C 0.0 **** -0.24
11552 H 81.38911154784489 103.65989333744875 55.08272503604316 H 0.0 **** 0.06
11553 H 81.10893302691292 105.3080881282379 54.47099890510495 H 0.0 **** 0.06
11554 H 80.5483043163812 103.90303902430816 53.53199121643789 H 0.0 **** 0.06
11555 H 82.28984652720672 104.2478394745828 53.6642572856793 H 0.0 **** 0.06
11556 C 106.34707185828015 41.66093482526725 105.54004238800029 C 0.0 **** -0.24
11557 H 106.61156087038063 42.27731665458873 106.39861251358856 H 0.0 **** 0.06
11558 H 106.26965280806928 42.28787630500153 104.65225224482623 H 0.0 **** 0.06
11559 H 105.38994554824409 41.17262187972915 105.72498408327719 H 0.0 **** 0.06
11560 H 107.11694814172218 40.90400519736926 105.38583209286459 H 0.0 **** 0.06
11561 C 14.803078440707132 21.887364643831802 101.02478336342234 C 0.0 **** -0.24
11562 H 15.829345910494059 21.523344263777517 101.08115700960839 H 0.0 **** 0.06
11563 H 14.70011403866361 22.55069460084505 100.16460168571592 H 0.0 **** 0.06
11564 H 14.560644620601717 22.43310418486851 101.93604285045346 H 0.0 **** 0.06
11565 H 14.123499994379841 21.041750674176882 100.91487932907225 H 0.0 **** 0.06
11566 C 71.93425982895931 28.14042493590756 54.008530396990466 C 0.0 **** -0.24
11567 H 71.72757688409868 28.919878689331142 53.27513165444989 H 0.0 **** 0.06
11568 H 72.54906476681772 27.365821547082533 53.550389397045905 H 0.0 **** 0.06
11569 H 70.99614327852451 27.705722010713828 54.35098817424867 H 0.0 **** 0.06
11570 H 72.46622103182763 28.572015219614258 54.856158732770666 H 0.0 **** 0.06
11571 C 64.76304227241096 29.981021310141614 97.79415422627747 C 0.0 **** -0.24
11572 H 64.37920436498088 29.916465800408957 98.8127477649571 H 0.0 **** 0.06
11573 H 64.75601571435564 31.02206827165645 97.46887337951145 H 0.0 **** 0.06
11574 H 64.1320548954483 29.38850643811014 97.13106916343858 H 0.0 **** 0.06
11575 H 65.78285035250603 29.59785260027155 97.76433964918525 H 0.0 **** 0.06
11576 C 98.56036749973572 91.02862660388428 9.710578003993305 C 0.0 **** -0.24
11577 H 98.75937241070298 92.1004852762187 9.745958993614863 H 0.0 **** 0.06
11578 H 99.26891916296333 90.55016050922723 9.035287405091196 H 0.0 **** 0.06
11579 H 97.5443718387532 90.86024500439021 9.353075311501186 H 0.0 **** 0.06
11580 H 98.66823912662268 90.60699573217732 10.710282390469047 H 0.0 **** 0.06
11581 C 6.214516248510904 9.621327868656422 51.1373441838268 C 0.0 **** -0.24
11582 H 6.992868005764649 9.144303169324349 50.54097791340786 H 0.0 **** 0.06
11583 H 5.994586817094188 9.00273465828464 52.00852859564935 H 0.0 **** 0.06
11584 H 5.312545195918489 9.733904595483878 50.534859778009604 H 0.0 **** 0.06
11585 H 6.557663872936615 10.603080761827146 51.46458675182612 H 0.0 **** 0.06
11586 C 99.48092304237042 53.202789201592054 66.02844031827965 C 0.0 **** -0.24
11587 H 99.82094912434636 52.622060822219964 65.17142895036062 H 0.0 **** 0.06
11588 H 100.19107418179104 54.00532168025006 66.22831952524888 H 0.0 **** 0.06
11589 H 99.40894277883103 52.55370818463348 66.9010481193497 H 0.0 **** 0.06
11590 H 98.50184976346189 53.63012941098361 65.81185645991866 H 0.0 **** 0.06
11591 C 38.51320173859523 101.63285978336236 101.69159690796238 C 0.0 **** -0.24
11592 H 37.76686959245626 101.38395307745606 100.93719483610113 H 0.0 **** 0.06
11593 H 38.07321134163146 102.30583609286552 102.4289727563746 H 0.0 **** 0.06
11594 H 39.36195785091931 102.12163700966035 101.21453869812109 H 0.0 **** 0.06
11595 H 38.84807265148771 100.7216096149975 102.1852508580767 H 0.0 **** 0.06
11596 C 97.55802124953243 60.56873874758857 84.67575566247487 C 0.0 **** -0.24
11597 H 98.39000501353841 60.595536015440985 85.37930993968553 H 0.0 **** 0.06
11598 H 96.67838613030851 60.155057011877894 85.16886536965319 H 0.0 **** 0.06
11599 H 97.82392697605536 59.94550144027412 83.82237527965958 H 0.0 **** 0.06
11600 H 97.34120704424508 61.58024663625967 84.3325413097547 H 0.0 **** 0.06
11601 C 2.9983421613789147 15.874300458628294 14.246857864739997 C 0.0 **** -0.24
11602 H 3.2552496920051084 16.924802482543548 14.380527960385152 H 0.0 **** 0.06
11603 H 3.505446776669615 15.276643620774163 15.004570170181658 H 0.0 **** 0.06
11604 H 3.312648998384603 15.546905765808198 13.254966381815482 H 0.0 **** 0.06
11605 H 1.9205336519436145 15.748440067819171 14.34611335457928 H 0.0 **** 0.06
11606 C 24.341873992669072 76.25800626471847 20.348815910866605 C 0.0 **** -0.24
11607 H 24.537910323548797 77.26219667365844 19.97258845384478 H 0.0 **** 0.06
11608 H 24.909390607696658 76.09635761868734 21.265546153122926 H 0.0 **** 0.06
11609 H 24.641080884460653 75.52392076908833 19.600625138021783 H 0.0 **** 0.06
11610 H 23.277688678657793 76.15118226801795 20.557645820685593 H 0.0 **** 0.06
11611 C 104.96313506276955 11.000078980131889 49.25553283882263 C 0.0 **** -0.24
11612 H 105.66724578907119 10.64329804886961 50.006358450836046 H 0.0 **** 0.06
11613 H 105.50683703271783 11.28996784219305 48.35569430855804 H 0.0 **** 0.06
11614 H 104.42190665604781 11.861877857392358 49.6462120182434 H 0.0 **** 0.06
11615 H 104.25666251731003 10.20657400360642 49.01371666530969 H 0.0 **** 0.06
11616 C 54.50956443419921 75.20957513549621 64.69382751961527 C 0.0 **** -0.24
11617 H 54.2712828656789 74.22670389606418 64.28829122049429 H 0.0 **** 0.06
11618 H 53.62684913964562 75.62475569085962 65.18147552838998 H 0.0 **** 0.06
11619 H 54.82314119864941 75.87044433274087 63.88509191906864 H 0.0 **** 0.06
11620 H 55.317008224961945 75.11800133318951 65.42110293169245 H 0.0 **** 0.06
11621 C 29.06102497791443 25.355106122326703 17.769463655959754 C 0.0 **** -0.24
11622 H 28.054541290919076 25.751566062397472 17.90207887377721 H 0.0 **** 0.06
11623 H 29.779033539098307 26.012908844790502 18.259748282957048 H 0.0 **** 0.06
11624 H 29.289527326364563 25.295134225887438 16.705672921790253 H 0.0 **** 0.06
11625 H 29.119921364704027 24.359953887581923 18.21003935140743 H 0.0 **** 0.06
11626 C 45.44039523724338 53.63701029661689 18.37532201642692 C 0.0 **** -0.24
11627 H 46.36743773535372 54.032203646278845 17.95761491724744 H 0.0 **** 0.06
11628 H 44.59319068605937 54.17514624280841 17.950635260310577 H 0.0 **** 0.06
11629 H 45.4479981263883 53.76462434018737 19.45792654801251 H 0.0 **** 0.06
11630 H 45.35716219186322 52.577200526919 18.135213281732675 H 0.0 **** 0.06
11631 C 31.48483203605855 100.91446690660243 52.278813323448134 C 0.0 **** -0.24
11632 H 31.28130680415535 101.77488228134777 52.91684906186461 H 0.0 **** 0.06
11633 H 31.731397147908467 101.2579788925685 51.27388999586614 H 0.0 **** 0.06
11634 H 30.60133501444082 100.2760576504256 52.23807735017343 H 0.0 **** 0.06
11635 H 32.32258102241465 100.34975166779842 52.68628967925389 H 0.0 **** 0.06
11636 C 37.28325419525079 101.93591021194902 58.789405759389254 C 0.0 **** -0.24
11637 H 37.246211939193316 102.82888416080243 58.165369615005694 H 0.0 **** 0.06
11638 H 36.69058392123622 101.14562155654016 58.32846595544355 H 0.0 **** 0.06
11639 H 36.87949377335721 102.16430390187332 59.77602502458965 H 0.0 **** 0.06
11640 H 38.31672714721655 101.60483122858005 58.887762442518394 H 0.0 **** 0.06
11641 C 77.71569695585154 40.95989419215107 21.553219589936703 C 0.0 **** -0.24
11642 H 76.71775217805191 40.64577967470777 21.247216318486636 H 0.0 **** 0.06
11643 H 78.05269940634366 41.77342857614519 20.911204918633615 H 0.0 **** 0.06
11644 H 78.40336345809146 40.11808323120786 21.464687938495075 H 0.0 **** 0.06
11645 H 77.68784967013102 41.29992942422044 22.58772246934919 H 0.0 **** 0.06
11646 C 22.86548198776663 2.725255987160608 6.998435718622812 C 0.0 **** -0.24
11647 H 22.926031270986016 2.2883576853878935 6.0021213488575835 H 0.0 **** 0.06
11648 H 21.971633066654988 2.358972639014098 7.502065802248838 H 0.0 **** 0.06
11649 H 22.816720599261316 3.8114704893872613 6.914661363312035 H 0.0 **** 0.06
11650 H 23.748379178823797 2.4449132226824304 7.572878222997257 H 0.0 **** 0.06
11651 C 8.33751217926654 0.9404084995741187 5.506471418994634 C 0.0 **** -0.24
11652 H 8.514706043738528 0.5349349104510566 4.510546125390464 H 0.0 **** 0.06
11653 H 9.063829287479024 0.5208737055405379 6.203276102760476 H 0.0 **** 0.06
11654 H 7.330297113046441 0.6796774183508774 5.831497296477513 H 0.0 **** 0.06
11655 H 8.44154378188206 2.0248648112755063 5.481062487025708 H 0.0 **** 0.06
11656 C 55.1775624096295 81.79771284431095 48.758563728539 C 0.0 **** -0.24
11657 H 55.69306456039544 81.07801384872064 48.12244690975625 H 0.0 **** 0.06
11658 H 54.214751969361316 81.38743279867214 49.06317831864648 H 0.0 **** 0.06
11659 H 55.02021818418058 82.72384085763056 48.20558596050498 H 0.0 **** 0.06
11660 H 55.783700993450395 81.9998855798803 49.64205619781833 H 0.0 **** 0.06
11661 C 13.298638173439144 105.29960181153075 81.45307152680763 C 0.0 **** -0.24
11662 H 12.513153666491732 105.9622587316361 81.81831071855589 H 0.0 **** 0.06
11663 H 12.960812646693697 104.26573734066733 81.51903244029205 H 0.0 **** 0.06
11664 H 14.194318505298014 105.42964225752485 82.05992480527314 H 0.0 **** 0.06
11665 H 13.523951939902844 105.54312762146822 80.41474710844207 H 0.0 **** 0.06
11666 C 72.47190007546106 31.884754137611488 68.04958529216765 C 0.0 **** -0.24
11667 H 72.89539699278177 31.052396126359078 68.61179007327127 H 0.0 **** 0.06
11668 H 71.58378115891932 32.25489427469266 68.56269816436287 H 0.0 **** 0.06
11669 H 72.2000061594382 31.54597858588894 67.0500411377779 H 0.0 **** 0.06
11670 H 73.20804114984753 32.684706003579 67.97469198604819 H 0.0 **** 0.06
11671 C 8.790928243066574 4.127794454132998 9.414189718691915 C 0.0 **** -0.24
11672 H 9.015449817933415 3.297621011901432 8.745128596060283 H 0.0 **** 0.06
11673 H 9.690482403972368 4.727582861080146 9.562783191876136 H 0.0 **** 0.06
11674 H 8.450749635546188 3.738912879668061 10.37396591350705 H 0.0 **** 0.06
11675 H 8.009200932641306 4.747571971478415 8.974704837660866 H 0.0 **** 0.06
11676 C 35.023126792219045 71.62865253037822 18.147693036487922 C 0.0 **** -0.24
11677 H 34.23788703161682 72.2415182334253 18.591069724264514 H 0.0 **** 0.06
11678 H 34.967487242056805 71.6969082728879 17.060930351347665 H 0.0 **** 0.06
11679 H 34.89099637192231 70.59054806127347 18.453837454460228 H 0.0 **** 0.06
11680 H 35.9961365232806 71.98563555392602 18.484934615879226 H 0.0 **** 0.06
11681 C 76.41340734578642 23.160747107310897 87.27015275311277 C 0.0 **** -0.24
11682 H 76.1725477997195 23.05134718606797 86.21184177276928 H 0.0 **** 0.06
11683 H 75.8660489415063 24.00976210299396 87.68087658803131 H 0.0 **** 0.06
11684 H 77.48472937909031 23.329028680659917 87.38305161146866 H 0.0 **** 0.06
11685 H 76.13060695782369 22.25271842856324 87.8020320002106 H 0.0 **** 0.06
11686 C 16.22810687842443 70.75181350354404 92.23125225233974 C 0.0 **** -0.24
11687 H 15.763090364858659 69.82474599027785 92.56508773717911 H 0.0 **** 0.06
11688 H 16.687392360778674 71.25575885889663 93.08238836872727 H 0.0 **** 0.06
11689 H 15.46949106894363 71.4003611379481 91.79067101753623 H 0.0 **** 0.06
11690 H 16.99065501711864 70.52688172345705 91.4856285306463 H 0.0 **** 0.06
11691 C 100.30841780909397 78.78804555391643 103.64428396318229 C 0.0 **** -0.24
11692 H 100.32658579484588 79.70895233222934 104.22883886169095 H 0.0 **** 0.06
11693 H 100.19672031478505 79.03178130962141 102.58791648720782 H 0.0 **** 0.06
11694 H 99.47015051431 78.17058320165928 103.96720949531701 H 0.0 **** 0.06
11695 H 101.24050816527776 78.24394264683183 103.79589955943098 H 0.0 **** 0.06
11696 C 19.066199069973266 1.8461236746098564 11.731876436155261 C 0.0 **** -0.24
11697 H 18.10889685902231 1.3286418346540785 11.80455238606362 H 0.0 **** 0.06
11698 H 19.62865261679019 1.6995222087685846 12.654908290900863 H 0.0 **** 0.06
11699 H 18.89287012618894 2.910429146406969 11.575749551743172 H 0.0 **** 0.06
11700 H 19.633929460924833 1.4429104805771544 10.89321975006709 H 0.0 **** 0.06
11701 C 66.52983882987041 80.34038184587709 98.42874376409844 C 0.0 **** -0.24
11702 H 65.53603359891042 80.66874958785604 98.73036839869638 H 0.0 **** 0.06
11703 H 67.15136974952463 81.2114732575422 98.21612232280887 H 0.0 **** 0.06
11704 H 66.4524139324005 79.72295195479504 97.53369938973827 H 0.0 **** 0.06
11705 H 66.98120509064262 79.75995469283426 99.2331556658275 H 0.0 **** 0.06
11706 C 10.214578222536703 59.00557523793549 38.172812723650935 C 0.0 **** -0.24
11707 H 10.972261127692509 58.26417842484739 37.92073525362363 H 0.0 **** 0.06
11708 H 10.698156695112123 59.952450085531524 38.413406988916016 H 0.0 **** 0.06
11709 H 9.641738212891498 58.66090699650087 39.03437751294269 H 0.0 **** 0.06
11710 H 9.545846986534778 59.14367346458789 37.324039458309954 H 0.0 **** 0.06
11711 C 65.24737454764607 60.62434234586263 81.19698365676479 C 0.0 **** -0.24
11712 H 66.02990506414693 59.97838157131915 80.79688185801837 H 0.0 **** 0.06
11713 H 65.33448799358803 60.669574232901 82.28303755935457 H 0.0 **** 0.06
11714 H 64.27135645902814 60.2223431906682 80.92593004962248 H 0.0 **** 0.06
11715 H 65.35658718887373 61.626803724370205 80.78115127734202 H 0.0 **** 0.06
11716 C 12.356289049720942 14.20606208215466 86.3743886961451 C 0.0 **** -0.24
11717 H 13.044435836823538 14.598751555363293 87.12342722443708 H 0.0 **** 0.06
11718 H 11.469865255216178 13.808321920986515 86.8698757193124 H 0.0 **** 0.06
11719 H 12.847216279210159 13.41153376657779 85.81275634259816 H 0.0 **** 0.06
11720 H 12.065084557577734 15.00652656290687 85.69416500296359 H 0.0 **** 0.06
11721 C 73.20340803615662 34.41019700520283 51.83323935725982 C 0.0 **** -0.24
11722 H 73.45996814744 33.987976599889805 52.804810529740834 H 0.0 **** 0.06
11723 H 72.89841948242547 33.60997594180981 51.158031986792714 H 0.0 **** 0.06
11724 H 74.0703534227285 34.924246701722325 51.4193864026517 H 0.0 **** 0.06
11725 H 72.3825795075338 35.11918876082419 51.95127337063542 H 0.0 **** 0.06
11726 C 19.91613426064454 92.05311288489993 102.03218179619446 C 0.0 **** -0.24
11727 H 19.246633138777806 91.25230926501006 101.71673677740662 H 0.0 **** 0.06
11728 H 20.678002366481422 92.21097464697979 101.26695928555424 H 0.0 **** 0.06
11729 H 20.395509771077137 91.77766688426185 102.97113455923156 H 0.0 **** 0.06
11730 H 19.34513634147768 92.97059726891314 102.17034269337896 H 0.0 **** 0.06
11731 C 38.2910561155214 101.68608073441538 9.130561561899043 C 0.0 **** -0.24
11732 H 39.32196802534682 101.35561499200034 9.255768248357867 H 0.0 **** 0.06
11733 H 37.66325211886013 101.20940544631188 9.88304976474356 H 0.0 **** 0.06
11734 H 37.939557590392894 101.41068354064933 8.136105484136607 H 0.0 **** 0.06
11735 H 38.239525452911806 102.76919886338291 9.246511850293885 H 0.0 **** 0.06
11736 C 4.652566934571695 34.767890122632025 22.777378377915767 C 0.0 **** -0.24
11737 H 5.169775595079386 33.81823025192574 22.918108927555352 H 0.0 **** 0.06
11738 H 3.598597325477755 34.579628773549246 22.571955757969306 H 0.0 **** 0.06
11739 H 5.097878356976693 35.30255176846134 21.93832511846483 H 0.0 **** 0.06
11740 H 4.745935517505885 35.36880756661424 23.682035907667 H 0.0 **** 0.06
11741 C 41.121156592143876 1.3048722542140085 13.599805982197779 C 0.0 **** -0.24
11742 H 40.26300349388339 1.2360757066267878 12.931327112952658 H 0.0 **** 0.06
11743 H 41.91866559593038 1.8655845072032138 13.110465664002817 H 0.0 **** 0.06
11744 H 41.47636399905802 0.30185620760570053 13.838492524387107 H 0.0 **** 0.06
11745 H 40.82761852881474 1.8152294863225285 14.516841741801187 H 0.0 **** 0.06
11746 C 51.86875528587163 50.181142345492475 82.60793494718553 C 0.0 **** -0.24
11747 H 52.197604917948155 49.546167368409044 81.78531449865608 H 0.0 **** 0.06
11748 H 52.65026759975913 50.227092565943025 83.36550060558994 H 0.0 **** 0.06
11749 H 50.96112816392244 49.76645622821209 83.04629225576221 H 0.0 **** 0.06
11750 H 51.66526860908672 51.18437578762871 82.2341776514711 H 0.0 **** 0.06
11751 C 63.28677110483625 102.96092326842347 81.09268717609814 C 0.0 **** -0.24
11752 H 63.8304095803349 103.90207484105366 81.17667910779613 H 0.0 **** 0.06
11753 H 62.216497266967394 103.16253773482117 81.05660122976471 H 0.0 **** 0.06
11754 H 63.5106548839168 102.33486584197453 81.9570429531152 H 0.0 **** 0.06
11755 H 63.59088814573914 102.44593849303817 80.18220425581822 H 0.0 **** 0.06
11756 C 73.42652659134122 72.63324694119376 12.123324495437942 C 0.0 **** -0.24
11757 H 74.38269696603841 72.2038925410182 12.422624887676363 H 0.0 **** 0.06
11758 H 73.36232971913378 73.66178225162963 12.479398386546222 H 0.0 **** 0.06
11759 H 72.61465007023125 72.04798958828161 12.555453025528266 H 0.0 **** 0.06
11760 H 73.34613400050353 72.61880536072067 11.036624373186328 H 0.0 **** 0.06
11761 C 6.823981709547439 103.36802363233616 46.136951640900826 C 0.0 **** -0.24
11762 H 6.829702998873856 103.61926894420704 47.197598032749625 H 0.0 **** 0.06
11763 H 7.392032387625033 104.11482271844318 45.5828819464619 H 0.0 **** 0.06
11764 H 5.7958120084346 103.34905873837664 45.77440489355709 H 0.0 **** 0.06
11765 H 7.277908834370713 102.3872480970761 45.994300906389405 H 0.0 **** 0.06
11766 C 68.47151426951314 67.08125653530163 103.74243697139886 C 0.0 **** -0.24
11767 H 69.23818271535697 66.31652653078785 103.61808577736258 H 0.0 **** 0.06
11768 H 67.93222908073523 67.21069409361783 102.80444439191447 H 0.0 **** 0.06
11769 H 68.94097798498728 68.02319120294632 104.02510034524113 H 0.0 **** 0.06
11770 H 67.77497055000705 66.77398115326983 104.52334506703596 H 0.0 **** 0.06
11771 C 11.239917032651945 43.441058559185194 79.42132172996907 C 0.0 **** -0.24
11772 H 10.352533439841935 43.74475045996965 78.8664764636154 H 0.0 **** 0.06
11773 H 11.087202650591777 42.443489386769585 79.83320735928315 H 0.0 **** 0.06
11774 H 11.419785593304908 44.14607393811664 80.2321338317373 H 0.0 **** 0.06
11775 H 12.099766902680159 43.429833285875446 78.75126731643631 H 0.0 **** 0.06
11776 C 105.67713283059334 42.66401238868713 2.64445686840574 C 0.0 **** -0.24
11777 H 105.68431754002228 42.377473134207094 1.59310092707085 H 0.0 **** 0.06
11778 H 106.11688724079202 41.86462978583876 3.241362428290074 H 0.0 **** 0.06
11779 H 104.65063952787233 42.837258409972264 2.967699852577283 H 0.0 **** 0.06
11780 H 106.25796205716023 43.57729803513911 2.7757141405493826 H 0.0 **** 0.06
11781 C 88.49827967042614 45.59369654362641 61.44673282951632 C 0.0 **** -0.24
11782 H 88.38049593937889 45.08509894008138 60.49082954233822 H 0.0 **** 0.06
11783 H 87.79715992830246 45.17623398694174 62.17006668890116 H 0.0 **** 0.06
11784 H 88.2989467768842 46.65739840426899 61.31933414301963 H 0.0 **** 0.06
11785 H 89.51779242383166 45.456285789230115 61.807848828422635 H 0.0 **** 0.06
11786 C 82.71911078718867 14.471147654479154 91.17386315528394 C 0.0 **** -0.24
11787 H 82.70827326489871 15.374687397057357 90.56457326362874 H 0.0 **** 0.06
11788 H 81.69748544361224 14.117539127253309 91.31580825415169 H 0.0 **** 0.06
11789 H 83.16566190447782 14.690883040448597 92.14297724066704 H 0.0 **** 0.06
11790 H 83.3033144608986 13.700520422911069 90.6706241871914 H 0.0 **** 0.06
11791 C 36.19614113961991 48.3658784966633 17.987868099462133 C 0.0 **** -0.24
11792 H 37.16032937558658 48.3526813335082 17.47926844709275 H 0.0 **** 0.06
11793 H 35.40601499598064 48.13675617756752 17.27293569768409 H 0.0 **** 0.06
11794 H 36.02521859991749 49.35361370332521 18.416404412433508 H 0.0 **** 0.06
11795 H 36.19481085314066 47.620418642556274 18.783715188261624 H 0.0 **** 0.06
11796 C 80.98077917831097 64.94848119642654 88.71461481074047 C 0.0 **** -0.24
11797 H 80.53259611330694 63.97042744219323 88.53678751716303 H 0.0 **** 0.06
11798 H 81.8627710856979 64.83484389630144 89.34532676595869 H 0.0 **** 0.06
11799 H 80.25656587776733 65.59352428142552 89.21328130567417 H 0.0 **** 0.06
11800 H 81.26887281687254 65.39392365393576 87.76196491746173 H 0.0 **** 0.06
11801 C 69.96320957150864 23.344549882519445 77.00894421930481 C 0.0 **** -0.24
11802 H 69.49363585431415 23.052116488828375 77.94781530401298 H 0.0 **** 0.06
11803 H 70.01232897560094 22.481704735488336 76.34444646862657 H 0.0 **** 0.06
11804 H 70.97095842722419 23.70976414664493 77.20496579549412 H 0.0 **** 0.06
11805 H 69.37579258654364 24.132888162222898 76.53847132998595 H 0.0 **** 0.06
11806 C 61.94652374872487 15.597552699674765 91.932548214692 C 0.0 **** -0.24
11807 H 61.98619679495749 14.588546170882864 91.52282567972757 H 0.0 **** 0.06
11808 H 60.91131919923936 15.936174915683551 91.96513976807285 H 0.0 **** 0.06
11809 H 62.53054159438676 16.268635044931997 91.3021155183522 H 0.0 **** 0.06
11810 H 62.360581322621385 15.59561530757172 92.94152360718256 H 0.0 **** 0.06
11811 C 24.872477664797458 4.193953671755537 55.84375380287878 C 0.0 **** -0.24
11812 H 23.893210399854784 3.8777385677889953 56.20201949010411 H 0.0 **** 0.06
11813 H 24.83222814433964 5.245827206223723 55.55737146826161 H 0.0 **** 0.06
11814 H 25.154246674956838 3.5924027548474413 54.97968412049545 H 0.0 **** 0.06
11815 H 25.609752159784954 4.061092055389921 56.63546701745241 H 0.0 **** 0.06
11816 C 19.619720292281045 48.541945737365545 52.71594697251459 C 0.0 **** -0.24
11817 H 20.503722278508377 48.19696051226872 52.18031523651251 H 0.0 **** 0.06
11818 H 18.862112489749748 48.86229328153581 51.99954858140475 H 0.0 **** 0.06
11819 H 19.888289321170987 49.37902698902841 53.359450902721306 H 0.0 **** 0.06
11820 H 19.223364942844498 47.72847648843903 53.32437278324264 H 0.0 **** 0.06
11821 C 74.90534038805379 15.21628038412733 13.311519477950185 C 0.0 **** -0.24
11822 H 75.44321190047134 14.9713757378196 14.22735333544847 H 0.0 **** 0.06
11823 H 75.54707462354759 15.024943435014904 12.451170086929608 H 0.0 **** 0.06
11824 H 74.62110038625661 16.26821028367776 13.327004677989919 H 0.0 **** 0.06
11825 H 74.00948920219605 14.59846220841257 13.241027540990387 H 0.0 **** 0.06
11826 C 97.22412244714793 85.17598275718163 76.49678994388051 C 0.0 **** -0.24
11827 H 97.23405838596769 84.21812315203728 77.01719745318036 H 0.0 **** 0.06
11828 H 98.22225888904082 85.6124315493175 76.51967585564967 H 0.0 **** 0.06
11829 H 96.52149955683083 85.84848025647372 76.98820714281999 H 0.0 **** 0.06
11830 H 96.91697816947027 85.0234787770088 75.461734064057 H 0.0 **** 0.06
11831 C 49.744297512167066 59.7877415094644 88.85347056640762 C 0.0 **** -0.24
11832 H 50.4997159336487 60.46804069628163 88.4598517840094 H 0.0 **** 0.06
11833 H 49.052537078729955 59.5132185123244 88.05584820847753 H 0.0 **** 0.06
11834 H 49.19615895476912 60.27949640761925 89.65698841990303 H 0.0 **** 0.06
11835 H 50.22867869486174 58.89079067910927 89.23928241196654 H 0.0 **** 0.06
11836 C 84.23197772389958 49.61499675320758 55.317824228221525 C 0.0 **** -0.24
11837 H 84.03123368955431 49.95441210987829 54.30138201093922 H 0.0 **** 0.06
11838 H 85.04988014799153 50.19847837377185 55.74132577612227 H 0.0 **** 0.06
11839 H 84.50781727118789 48.56086267333254 55.30122398231913 H 0.0 **** 0.06
11840 H 83.33711974085281 49.747026770106345 55.92641028956223 H 0.0 **** 0.06
11841 C 1.1752198709980064 11.113877981599956 4.257168724085162 C 0.0 **** -0.24
11842 H 1.9492150530582109 10.469864479551305 3.8376525104711385 H 0.0 **** 0.06
11843 H 0.35893599998144055 11.212467320256735 3.5418055458250883 H 0.0 **** 0.06
11844 H 1.5959327078864476 12.097184430627323 4.466896721858145 H 0.0 **** 0.06
11845 H 0.7985919841119085 10.674280270436427 5.18012210361821 H 0.0 **** 0.06
11846 C 106.97739237641981 89.75365781537946 79.26135958435631 C 0.0 **** -0.24
11847 H 107.76503094167717 89.4393280458388 79.94615809113358 H 0.0 **** 0.06
11848 H 107.42327292487148 90.08012944263375 78.32101412054874 H 0.0 **** 0.06
11849 H 106.41847579145734 90.57755517978102 79.70484699208308 H 0.0 **** 0.06
11850 H 106.30466022869193 88.91640225941735 79.07356892370971 H 0.0 **** 0.06
11851 C 25.143858916660236 35.068706509290735 26.75419535995249 C 0.0 **** -0.24
11852 H 25.150466414576513 35.800443795455095 27.561931445505905 H 0.0 **** 0.06
11853 H 25.16714661294256 34.0631802846967 27.175581705577542 H 0.0 **** 0.06
11854 H 26.01931540372283 35.217776324306755 26.121479091006677 H 0.0 **** 0.06
11855 H 24.240329556848607 35.19255548432082 26.158749518793456 H 0.0 **** 0.06
11856 C 11.167010622483431 12.002907432512258 54.403360357375064 C 0.0 **** -0.24
11857 H 10.270511963068657 12.494239960184732 54.024997811443896 H 0.0 **** 0.06
11858 H 10.91810214318592 11.433987757747673 55.29928038106992 H 0.0 **** 0.06
11859 H 11.91768769824374 12.75497764158165 54.647202638434564 H 0.0 **** 0.06
11860 H 11.560064381958881 11.329877269139695 53.64224224112704 H 0.0 **** 0.06
11861 C 89.03483876711817 74.00341884133458 104.27429323023088 C 0.0 **** -0.24
11862 H 88.02712697390456 73.8122566549104 104.6420032079311 H 0.0 **** 0.06
11863 H 89.43233542295565 74.89894588619569 104.75259068702601 H 0.0 **** 0.06
11864 H 89.00683656202031 74.14999701707714 103.19482234333321 H 0.0 **** 0.06
11865 H 89.67403294689893 73.15240137778957 104.50976677700591 H 0.0 **** 0.06
11866 C 0.8208362979105823 2.8775443226009116 92.7825917985182 C 0.0 **** -0.24
11867 H 0.7206297333604557 3.9473883924379436 92.59569053018352 H 0.0 **** 0.06
11868 H -0.0032544638779810064 2.5400478618328464 93.41071458742701 H 0.0 **** 0.06
11869 H 1.766719850401243 2.684740452045176 93.28950866898688 H 0.0 **** 0.06
11870 H 0.8007198209225264 2.3409563531091635 91.83413126866182 H 0.0 **** 0.06
11871 C 30.927769704848032 44.77163744180984 100.56980106493563 C 0.0 **** -0.24
11872 H 29.92122296941912 44.8975045224825 100.16849078177722 H 0.0 **** 0.06
11873 H 31.126917809774028 43.71097859220342 100.72435061879042 H 0.0 **** 0.06
11874 H 31.007265727717737 45.2989508188803 101.52033022385274 H 0.0 **** 0.06
11875 H 31.6526018023865 45.17941484599955 99.86533763901366 H 0.0 **** 0.06
11876 C 92.91906209906624 96.72197248738074 93.30046467211574 C 0.0 **** -0.24
11877 H 92.05215478668045 96.07412518305274 93.4276112684478 H 0.0 **** 0.06
11878 H 93.41937766426322 96.48079408294285 92.36234418920668 H 0.0 **** 0.06
11879 H 93.61072951339827 96.57007844023327 94.13042924703453 H 0.0 **** 0.06
11880 H 92.59558658956915 97.76265635405116 93.28301803105668 H 0.0 **** 0.06
11881 C 31.119929026662533 86.16697672568327 27.519161979729844 C 0.0 **** -0.24
11882 H 30.067896013822207 86.04029084669753 27.265288197882015 H 0.0 **** 0.06
11883 H 31.731573575439256 85.9849406821747 26.63538964413391 H 0.0 **** 0.06
11884 H 31.393408767509328 85.45864118234945 28.30148244957202 H 0.0 **** 0.06
11885 H 31.288437724661037 87.18350746724042 27.874084166819546 H 0.0 **** 0.06
11886 C 103.97762529382649 93.88589049830176 24.96219441829487 C 0.0 **** -0.24
11887 H 104.22140067593723 93.5264522285994 23.962079207349234 H 0.0 **** 0.06
11888 H 104.75367709110151 93.57205669330835 25.660501421603158 H 0.0 **** 0.06
11889 H 103.01870751838986 93.47117147505475 25.27333514074047 H 0.0 **** 0.06
11890 H 103.91656543832727 94.97397998061547 24.950633021460362 H 0.0 **** 0.06
11891 C 87.87403846284596 71.98899081292579 23.964330905611547 C 0.0 **** -0.24
11892 H 87.081396090073 71.27272360838265 24.18189950024265 H 0.0 **** 0.06
11893 H 87.86052426396152 72.78317148429484 24.709904560112022 H 0.0 **** 0.06
11894 H 87.71606246657416 72.41616285120624 22.97388284731224 H 0.0 **** 0.06
11895 H 88.83846950250788 71.48201844631883 23.990474433168032 H 0.0 **** 0.06
11896 C 55.1021278649273 8.254572887187932 30.132183784617155 C 0.0 **** -0.24
11897 H 55.355514925280204 7.402826338234236 29.501664569080134 H 0.0 **** 0.06
11898 H 55.20579601232669 7.973827684519991 31.180894331673898 H 0.0 **** 0.06
11899 H 54.07322861343562 8.558871668087436 29.937070113474903 H 0.0 **** 0.06
11900 H 55.77374361880723 9.083894798812578 29.91039976805567 H 0.0 **** 0.06
11901 C 1.4329958680739665 13.402005862955605 72.48682357696015 C 0.0 **** -0.24
11902 H 1.5355715868171016 14.417493512602732 72.87164930641381 H 0.0 **** 0.06
11903 H 2.028020780600497 12.72196393549234 73.09663178476495 H 0.0 **** 0.06
11904 H 1.783882980954191 13.368556833691258 71.45499648834385 H 0.0 **** 0.06
11905 H 0.3853710540709705 13.10336284527915 72.52411035791874 H 0.0 **** 0.06
11906 C 83.59987281185123 13.312467894062962 12.849197078411095 C 0.0 **** -0.24
11907 H 83.12034381844903 12.920548462591029 13.74594664928182 H 0.0 **** 0.06
11908 H 82.86904903668672 13.369843899432311 12.0422575940716 H 0.0 **** 0.06
11909 H 84.41472618814736 12.65202142166612 12.555249686126743 H 0.0 **** 0.06
11910 H 83.9942505209757 14.307563433649591 13.05418922858044 H 0.0 **** 0.06
11911 C 71.10129606066367 57.44275100936477 47.85650463855441 C 0.0 **** -0.24
11912 H 72.10307285729759 57.073040224069075 48.07496261157739 H 0.0 **** 0.06
11913 H 70.61406295535237 57.7420392243244 48.78540950583756 H 0.0 **** 0.06
11914 H 70.5202765445036 56.65408511883709 47.37934837145223 H 0.0 **** 0.06
11915 H 71.16805698716762 58.30044431143318 47.188022153287136 H 0.0 **** 0.06
11916 C 48.60159131586738 103.82992446205955 60.4294552509443 C 0.0 **** -0.24
11917 H 49.375011062461624 103.88208614881009 61.19606778925885 H 0.0 **** 0.06
11918 H 47.86388885034711 103.07801901289221 60.70785411539394 H 0.0 **** 0.06
11919 H 49.05362883080909 103.55974385376393 59.474874058821605 H 0.0 **** 0.06
11920 H 48.11448187181759 104.8008603658065 60.33827643235806 H 0.0 **** 0.06
11921 C 79.07510799805428 39.60067509299034 4.812200163468308 C 0.0 **** -0.24
11922 H 79.94274869751504 39.12422477787857 5.268667494325891 H 0.0 **** 0.06
11923 H 79.07543123384423 39.40442547469951 3.7398542744773655 H 0.0 **** 0.06
11924 H 79.12010558867365 40.67627892154812 4.984334849186544 H 0.0 **** 0.06
11925 H 78.16433047418761 39.19820811334844 5.2557453644925225 H 0.0 **** 0.06
11926 C 33.833704573051165 34.56644817544958 60.40289452997645 C 0.0 **** -0.24
11927 H 33.97154565982598 35.35043746874422 61.14808535723543 H 0.0 **** 0.06
11928 H 32.93140258803419 33.99981113561515 60.6343968695263 H 0.0 **** 0.06
11929 H 34.69559255467426 33.899720032615676 60.412812649427345 H 0.0 **** 0.06
11930 H 33.734478727683836 35.01868628463177 59.415526470529244 H 0.0 **** 0.06
11931 C 66.2877531099212 24.426378443411068 7.850324383414289 C 0.0 **** -0.24
11932 H 66.8034163801222 23.466108005124994 7.826748833637666 H 0.0 **** 0.06
11933 H 66.2132060877525 24.772102965227162 8.881858217935232 H 0.0 **** 0.06
11934 H 65.28903226745712 24.31243480166384 7.431003327888632 H 0.0 **** 0.06
11935 H 66.84844977898075 25.153682624499538 7.263113532190829 H 0.0 **** 0.06
11936 C 82.74459758703662 39.3268005830883 106.46568411726643 C 0.0 **** -0.24
11937 H 83.56395869052527 38.73615035734326 106.055606791467 H 0.0 **** 0.06
11938 H 83.0053747282337 40.38469189168694 106.42751355531097 H 0.0 **** 0.06
11939 H 82.56683154506383 39.0329947979599 107.4998674049497 H 0.0 **** 0.06
11940 H 81.84231850261781 39.152931817312435 105.8784057629351 H 0.0 **** 0.06
11941 C 38.3410009267498 48.35518317220795 78.8643433999473 C 0.0 **** -0.24
11942 H 38.56127585560877 48.713970342478206 79.86978133032352 H 0.0 **** 0.06
11943 H 39.27301806123896 48.228977550064 78.31218674484819 H 0.0 **** 0.06
11944 H 37.70959802249578 49.07978281513297 78.35086661991107 H 0.0 **** 0.06
11945 H 37.82261113699607 47.399312586148696 78.92555668753675 H 0.0 **** 0.06
11946 C 31.086288212331652 84.43059256797889 54.36515588411089 C 0.0 **** -0.24
11947 H 31.862675310375835 83.98213332840083 54.985413181643935 H 0.0 **** 0.06
11948 H 31.112009228645547 85.51441522362386 54.48050584028368 H 0.0 **** 0.06
11949 H 30.11193411558105 84.05370100580583 54.67505348286835 H 0.0 **** 0.06
11950 H 31.26102859320295 84.17063782279864 53.32090780137264 H 0.0 **** 0.06
11951 C 58.40546499288474 80.89567056739278 96.67829514236794 C 0.0 **** -0.24
11952 H 57.54769843881326 81.40167066645151 97.12193031814354 H 0.0 **** 0.06
11953 H 59.31333143666885 81.19108402316914 97.20629440150148 H 0.0 **** 0.06
11954 H 58.48832449796792 81.1746281509295 95.62809961160039 H 0.0 **** 0.06
11955 H 58.27248654796453 79.81745030816066 96.75917438759626 H 0.0 **** 0.06
11956 C 3.5969525768244353 15.093258290144774 21.80939953390391 C 0.0 **** -0.24
11957 H 4.427962630316699 14.516525145554908 21.402767146185795 H 0.0 **** 0.06
11958 H 2.9971320572897753 14.45767718516771 22.46006355241535 H 0.0 **** 0.06
11959 H 2.977807278569969 15.463558338987355 20.99188457222228 H 0.0 **** 0.06
11960 H 3.9858534970856 15.936152718746541 22.381057458172663 H 0.0 **** 0.06
11961 C 93.18586469510993 28.383018269122335 62.48277244024058 C 0.0 **** -0.24
11962 H 94.15904002587644 27.893007472461957 62.448306308027895 H 0.0 **** 0.06
11963 H 92.4880122360342 27.763563479233316 63.04651212782227 H 0.0 **** 0.06
11964 H 92.81208633379899 28.519342429048002 61.46774771698614 H 0.0 **** 0.06
11965 H 93.28473392769351 29.353279686380098 62.96779232347194 H 0.0 **** 0.06
11966 C 86.1879353859488 31.63387874219609 58.04730593172519 C 0.0 **** -0.24
11967 H 86.81598520492314 30.78810315975548 57.765920367381 H 0.0 **** 0.06
11968 H 86.3381445886103 32.44825177236788 57.339143216192554 H 0.0 **** 0.06
11969 H 86.45677867146179 31.96810209119093 59.04902131868147 H 0.0 **** 0.06
11970 H 85.14108254970103 31.328840571096976 58.03499306663019 H 0.0 **** 0.06
11971 C 19.911267171702804 16.322702220508358 41.3111964986104 C 0.0 **** -0.24
11972 H 20.992571607556954 16.225118909277224 41.211146753307986 H 0.0 **** 0.06
11973 H 19.501459443933783 15.403818217831628 41.729518725429074 H 0.0 **** 0.06
11974 H 19.471510693323268 16.503710943848642 40.329895915184125 H 0.0 **** 0.06
11975 H 19.682410990726083 17.1581596626811 41.972060608784176 H 0.0 **** 0.06
11976 C 100.90018731754809 8.749954682227823 31.105021194445584 C 0.0 **** -0.24
11977 H 101.22695230749413 7.819259494905097 30.641108680442272 H 0.0 **** 0.06
11978 H 101.41389845786686 9.589559422918825 30.635432535749146 H 0.0 **** 0.06
11979 H 101.13761785827367 8.728514632610867 32.168487581151425 H 0.0 **** 0.06
11980 H 99.8234826806035 8.863162229799244 30.97474484099334 H 0.0 **** 0.06
11981 C 79.76303807054389 27.591778967258573 81.30324814280797 C 0.0 **** -0.24
11982 H 79.42474059392421 28.307569576044816 80.55323855298946 H 0.0 **** 0.06
11983 H 80.3557657020364 26.814014624385646 80.8217377184395 H 0.0 **** 0.06
11984 H 78.89803197032634 27.14055790464881 81.78978563091613 H 0.0 **** 0.06
11985 H 80.37125182204076 28.104580376192448 82.04771534124151 H 0.0 **** 0.06
11986 C 79.50257537578062 103.6946356368033 7.291849691358738 C 0.0 **** -0.24
11987 H 79.42861245758036 102.8918997356601 8.025964326957414 H 0.0 **** 0.06
11988 H 79.4252696547544 103.27699778356555 6.287961669576374 H 0.0 **** 0.06
11989 H 80.46113110111946 104.20070129400943 7.4018820970384684 H 0.0 **** 0.06
11990 H 78.69363079079994 104.40847743129939 7.451778813986447 H 0.0 **** 0.06
11991 C 19.42284086928889 18.577507229510502 0.6932348880920216 C 0.0 **** -0.24
11992 H 18.7196796067378 17.787154483595316 0.9546587822474919 H 0.0 **** 0.06
11993 H 20.393397559269104 18.361580746738696 1.1396194329014122 H 0.0 **** 0.06
11994 H 19.053431630847697 19.53200581110292 1.0686866128460792 H 0.0 **** 0.06
11995 H 19.5241426173627 18.627856703493023 -0.39158890606093166 H 0.0 **** 0.06
11996 C 23.560040993490674 20.52373599374944 16.655205224275505 C 0.0 **** -0.24
11997 H 22.688181348937302 19.92443023264201 16.919222485149447 H 0.0 **** 0.06
11998 H 23.88911737556723 20.261316413644153 15.64992497007546 H 0.0 **** 0.06
11999 H 24.363945778961998 20.328032528966432 17.36471065096947 H 0.0 **** 0.06
12000 H 23.296985877905414 21.581464357068256 16.688045248917433 H 0.0 **** 0.06
12001 C 66.02197681903687 77.7806109995505 66.54531439926822 C 0.0 **** -0.24
12002 H 66.66030437743251 77.08502289883813 66.00126955536197 H 0.0 **** 0.06
12003 H 65.23618620556186 78.14607602875873 65.88291179507897 H 0.0 **** 0.06
12004 H 66.61897911278038 78.6201297165129 66.90045980175819 H 0.0 **** 0.06
12005 H 65.57089419429019 77.26931324325022 67.39663093743368 H 0.0 **** 0.06
12006 C 92.9317284068708 5.93180482040732 39.900969538680954 C 0.0 **** -0.24
12007 H 92.16199710430243 6.390491434444435 39.280381901921515 H 0.0 **** 0.06
12008 H 93.54314086995572 5.269010285029905 39.28770861366054 H 0.0 **** 0.06
12009 H 92.461606823674 5.35775331109558 40.698539098545126 H 0.0 **** 0.06
12010 H 93.56054134840267 6.709668892759279 40.334286377938724 H 0.0 **** 0.06
12011 C 13.380762359968045 2.611245001895071 14.287804369199382 C 0.0 **** -0.24
12012 H 13.257294606348403 3.52267414702564 13.703210222930181 H 0.0 **** 0.06
12013 H 13.240308259093737 2.8356345224055985 15.344817927065982 H 0.0 **** 0.06
12014 H 14.383821646687366 2.2132227477965785 14.13077854111842 H 0.0 **** 0.06
12015 H 12.643489006177532 1.8738705858201001 13.971250026597318 H 0.0 **** 0.06
12016 C 31.222389683571066 16.522931000040785 36.660655853956825 C 0.0 **** -0.24
12017 H 31.319229110731385 16.41924629544758 37.74143812620167 H 0.0 **** 0.06
12018 H 30.795149910019774 15.610111518568246 36.24503283193482 H 0.0 **** 0.06
12019 H 32.20569429793929 16.69565419890175 36.22308935268458 H 0.0 **** 0.06
12020 H 30.570773723437895 17.36577583660447 36.433744297357805 H 0.0 **** 0.06
12021 C 40.161875625674284 47.90920316670734 60.15042257672442 C 0.0 **** -0.24
12022 H 39.68927793742068 48.8911253108853 60.11716510852539 H 0.0 **** 0.06
12023 H 39.73470790294883 47.32926135110371 60.9691844370128 H 0.0 **** 0.06
12024 H 41.23373932524571 48.027754620790276 60.30858851208019 H 0.0 **** 0.06
12025 H 39.98884947019528 47.39022728193679 59.20759985118995 H 0.0 **** 0.06
12026 C 104.20267300584977 75.45364554058783 89.95667195062023 C 0.0 **** -0.24
12027 H 104.20300685698801 75.94437282168687 88.98342001603018 H 0.0 **** 0.06
12028 H 103.93826008707018 74.40323475996134 89.83370967533818 H 0.0 **** 0.06
12029 H 103.47419342857879 75.93766450929841 90.60683795319571 H 0.0 **** 0.06
12030 H 105.19450388988552 75.52999560123988 90.40269873364858 H 0.0 **** 0.06
12031 C 64.82306812346056 102.46316028600614 16.113669973485713 C 0.0 **** -0.24
12032 H 65.86937020144725 102.30733721486115 15.852540123363127 H 0.0 **** 0.06
12033 H 64.18675324197645 102.00554980443479 15.35547225845528 H 0.0 **** 0.06
12034 H 64.61673128408532 103.53208437265431 16.16487640707868 H 0.0 **** 0.06
12035 H 64.61905836756839 102.00717534777067 17.083066443827704 H 0.0 **** 0.06
12036 C 95.6201478608793 11.108038738843561 47.87574494240499 C 0.0 **** -0.24
12037 H 94.75273262539939 11.268016460399664 47.23568976873602 H 0.0 **** 0.06
12038 H 96.49670033931162 10.912491238210904 47.25746857282542 H 0.0 **** 0.06
12039 H 95.43811595303491 10.254521401644638 48.52834452850928 H 0.0 **** 0.06
12040 H 95.79318512990945 11.998348057615289 48.48077977889082 H 0.0 **** 0.06
12041 C 22.497615901731578 56.14003969110103 10.445480617087314 C 0.0 **** -0.24
12042 H 22.95777357129961 56.038782449972395 9.463413144024145 H 0.0 **** 0.06
12043 H 22.927469157325547 56.998317223023754 10.96206804641887 H 0.0 **** 0.06
12044 H 22.679686444941353 55.236224531254486 11.026325819901864 H 0.0 **** 0.06
12045 H 21.423713654890804 56.286074148286836 10.329788771990334 H 0.0 **** 0.06
12046 C 36.74054804934903 98.14092539895273 15.563864062001858 C 0.0 **** -0.24
12047 H 35.815371260338 97.58616859241269 15.408337561307558 H 0.0 **** 0.06
12048 H 36.59862907313385 99.17756916101962 15.25946072564875 H 0.0 **** 0.06
12049 H 37.53607956509251 97.69261790295536 14.968039642823605 H 0.0 **** 0.06
12050 H 37.013343282814844 98.10534536998426 16.618923568890253 H 0.0 **** 0.06
12051 C 52.69746139543928 71.25618182998704 71.69797730283602 C 0.0 **** -0.24
12052 H 52.42576543108294 72.00506789918069 72.4408370414961 H 0.0 **** 0.06
12053 H 53.78315466707266 71.18922886505561 71.62922324703958 H 0.0 **** 0.06
12054 H 52.28955745970104 71.54236621304244 70.72854727214022 H 0.0 **** 0.06
12055 H 52.29081127086931 70.28802392214612 71.99166197680209 H 0.0 **** 0.06
12056 C 25.356813198375466 101.30643221969774 71.10551912982467 C 0.0 **** -0.24
12057 H 26.187078904699177 101.93594763415275 70.7860854322283 H 0.0 **** 0.06
12058 H 25.564334974335612 100.90737421937668 72.09822055360755 H 0.0 **** 0.06
12059 H 25.233813821522023 100.48307521013939 70.40096951711794 H 0.0 **** 0.06
12060 H 24.44238167268634 101.89866675799672 71.13614481823814 H 0.0 **** 0.06
12061 C 39.68207944726606 92.92091948720284 85.90218721438859 C 0.0 **** -0.24
12062 H 38.64214180478916 92.70198156115606 85.66060787749822 H 0.0 **** 0.06
12063 H 39.817912542860824 94.00100783158591 85.97601373913483 H 0.0 **** 0.06
12064 H 40.32805928472061 92.52571760784375 85.1179734373184 H 0.0 **** 0.06
12065 H 39.93869499719307 92.45578827181473 86.8543873799259 H 0.0 **** 0.06
12066 C 10.109525201929358 19.009632176942688 84.43463653815564 C 0.0 **** -0.24
12067 H 10.57623287357714 19.0384023993051 85.41975428582015 H 0.0 **** 0.06
12068 H 9.86183061288557 17.979059575139416 84.18051214724034 H 0.0 **** 0.06
12069 H 10.79956887292991 19.411777501889986 83.69335484829696 H 0.0 **** 0.06
12070 H 9.199630303873164 19.60967138737344 84.44696244358465 H 0.0 **** 0.06
12071 C 103.84946319782065 103.2973201839958 93.8257107984404 C 0.0 **** -0.24
12072 H 103.97332585597925 103.59763909287233 92.78602515968835 H 0.0 **** 0.06
12073 H 103.39555768368521 104.11350480824535 94.38822406402106 H 0.0 **** 0.06
12074 H 104.82320802643454 103.05704357952243 94.25337877949178 H 0.0 **** 0.06
12075 H 103.20456815468631 102.41900752354445 93.87569119680231 H 0.0 **** 0.06
12076 C 85.36986133496544 63.27735353364665 44.53078255143049 C 0.0 **** -0.24
12077 H 85.0695760356997 63.44641273097784 45.564587855454505 H 0.0 **** 0.06
12078 H 84.85586214658628 63.98806437959098 43.88231534800914 H 0.0 **** 0.06
12079 H 85.10814618079343 62.26097372803423 44.23790042623739 H 0.0 **** 0.06
12080 H 86.44747764720478 63.41577334405133 44.438658809410214 H 0.0 **** 0.06
12081 C 57.82240423954019 99.57460025692697 22.25408868744782 C 0.0 **** -0.24
12082 H 57.00219142064257 98.85968124746984 22.190390647450187 H 0.0 **** 0.06
12083 H 58.481957524131545 99.29807281707991 23.07839802187118 H 0.0 **** 0.06
12084 H 57.421387793071716 100.5734595062921 22.429786657855573 H 0.0 **** 0.06
12085 H 58.38410764148575 99.56747317826158 21.31999704332216 H 0.0 **** 0.06
12086 C 9.978970002159073 5.398105993110079 2.997553347651319 C 0.0 **** -0.24
12087 H 9.383732004603033 4.63786161727937 3.5039612379802065 H 0.0 **** 0.06
12088 H 9.626620438998287 5.513708351979346 1.972654045566344 H 0.0 **** 0.06
12089 H 11.026104222885408 5.094864490744129 2.9901209434863176 H 0.0 **** 0.06
12090 H 9.87924046933837 6.347669226235965 3.525250689827658 H 0.0 **** 0.06
12091 C 9.798280395771172 26.662387672061243 52.93861681120362 C 0.0 **** -0.24
12092 H 8.932935962104423 27.318752756842272 52.84607169575026 H 0.0 **** 0.06
12093 H 9.486798329023543 25.627700088464792 52.79086940924761 H 0.0 **** 0.06
12094 H 10.232544996237479 26.772474341533183 53.93188155504999 H 0.0 **** 0.06
12095 H 10.539769837417523 26.929722765376127 52.18544811620936 H 0.0 **** 0.06
12096 C 32.16083504470487 20.44494966030493 12.354980633795142 C 0.0 **** -0.24
12097 H 32.87529991888158 20.972864063668226 11.724147860735744 H 0.0 **** 0.06
12098 H 31.25647010277885 21.04389011494993 12.460347007435672 H 0.0 **** 0.06
12099 H 32.60112446759456 20.276219371899515 13.338249706345856 H 0.0 **** 0.06
12100 H 31.911855734867288 19.48732390348374 11.899117866419134 H 0.0 **** 0.06
12101 C 12.47860320207738 49.747182081319956 9.317455017664514 C 0.0 **** -0.24
12102 H 13.403014528116216 50.32178943078225 9.266017996795497 H 0.0 **** 0.06
12103 H 12.715473112679334 48.686963950676784 9.415347530988171 H 0.0 **** 0.06
12104 H 11.899460395016064 49.90779929887248 8.40795271455383 H 0.0 **** 0.06
12105 H 11.898264160144976 50.07089377891881 10.180847159781734 H 0.0 **** 0.06
12106 C 106.00164591888517 10.978749272106072 74.98113662319649 C 0.0 **** -0.24
12107 H 105.71788506168673 12.0195013640122 74.82517008141227 H 0.0 **** 0.06
12108 H 106.94955137247382 10.937350901026576 75.52038264103913 H 0.0 **** 0.06
12109 H 106.11075873366514 10.482706489798687 74.0159088110617 H 0.0 **** 0.06
12110 H 105.2297579349846 10.47511088991942 75.56321740433646 H 0.0 **** 0.06
12111 C 51.509578410146275 29.029365490290836 51.85036259558592 C 0.0 **** -0.24
12112 H 50.918062896396066 28.584091358736252 52.65070007410981 H 0.0 **** 0.06
12113 H 52.568994663882165 28.84898084152988 52.039379535056696 H 0.0 **** 0.06
12114 H 51.324678174039946 30.102723240612455 51.81454744300464 H 0.0 **** 0.06
12115 H 51.228508435372476 28.580049399938716 50.898453788265044 H 0.0 **** 0.06
12116 C 84.08704555083237 79.66085726848752 45.22002578533494 C 0.0 **** -0.24
12117 H 84.30145284000767 78.77497378209095 44.62231292251485 H 0.0 **** 0.06
12118 H 83.60064015500237 79.36358160382659 46.14923280777691 H 0.0 **** 0.06
12119 H 83.42845513627954 80.32492728026622 44.66040414210812 H 0.0 **** 0.06
12120 H 85.01791923094801 80.17942039417812 45.44687182982747 H 0.0 **** 0.06
12121 C 43.19197624302328 7.4872431626787055 90.23102029077911 C 0.0 **** -0.24
12122 H 43.79711218677525 8.342772587582347 89.93401773458798 H 0.0 **** 0.06
12123 H 43.06576949522926 6.818454839089963 89.37891947713622 H 0.0 **** 0.06
12124 H 42.21507683629096 7.832888247393608 90.57032659780839 H 0.0 **** 0.06
12125 H 43.69033046455647 6.953935586209216 91.04075717515855 H 0.0 **** 0.06
12126 C 15.01106673340206 93.94925759472198 2.9556274028612393 C 0.0 **** -0.24
12127 H 14.828936590456067 94.52195519926437 2.0463877417283527 H 0.0 **** 0.06
12128 H 14.058124374792442 93.65895207347336 3.399383335456548 H 0.0 **** 0.06
12129 H 15.570525329981393 94.56086538123554 3.6633354588663565 H 0.0 **** 0.06
12130 H 15.585950311295534 93.0558811271743 2.7131237225299287 H 0.0 **** 0.06
12131 C 37.746660437519154 72.65395515427952 36.775695572327436 C 0.0 **** -0.24
12132 H 38.822343273229535 72.62016954313148 36.94311896413882 H 0.0 **** 0.06
12133 H 37.44771942395647 73.67575909180351 36.53621735808923 H 0.0 **** 0.06
12134 H 37.22852945146599 72.32584710522701 37.67678274643191 H 0.0 **** 0.06
12135 H 37.4863791336532 71.99551075900621 35.94691011633694 H 0.0 **** 0.06
12136 C 103.31948509212415 63.45436389538088 32.375810770687394 C 0.0 **** -0.24
12137 H 102.62740157563022 64.25560906880455 32.63702971423814 H 0.0 **** 0.06
12138 H 102.77750275721363 62.51091997431732 32.31662134286074 H 0.0 **** 0.06
12139 H 104.09468083885676 63.382341612123156 33.13873216578334 H 0.0 **** 0.06
12140 H 103.77856517627032 63.671577089049975 31.410917174795344 H 0.0 **** 0.06
12141 C 32.050921645859766 53.633456246086894 100.80130213232408 C 0.0 **** -0.24
12142 H 31.39515098567066 54.4698225903434 101.04287174415397 H 0.0 **** 0.06
12143 H 33.086903956639354 53.97214393500414 100.8012548596352 H 0.0 **** 0.06
12144 H 31.794865301571065 53.24463480601807 99.8154898960375 H 0.0 **** 0.06
12145 H 31.924331114055946 52.847092917403614 101.54536211372552 H 0.0 **** 0.06
12146 C 90.00636077188929 93.53731344263508 17.194198139182774 C 0.0 **** -0.24
12147 H 89.57518857779448 92.57313717758603 17.46352206166307 H 0.0 **** 0.06
12148 H 89.21496016751846 94.20858583289214 16.859291862843875 H 0.0 **** 0.06
12149 H 90.7312263948719 93.39973092178337 16.39198521437146 H 0.0 **** 0.06
12150 H 90.50413202540389 93.9679117393544 18.06398930270592 H 0.0 **** 0.06
12151 C 12.114219321317648 5.960606174702777 25.242180617750364 C 0.0 **** -0.24
12152 H 11.921143661925896 5.916599411559039 26.314540142797256 H 0.0 **** 0.06
12153 H 13.052903643023868 6.486411815196062 25.06375993179799 H 0.0 **** 0.06
12154 H 11.300140748692726 6.491057882158271 24.74829726381921 H 0.0 **** 0.06
12155 H 12.183269839161028 4.948071642582466 24.84401786949607 H 0.0 **** 0.06
12156 C 37.58225303919676 9.331534445844014 87.23928997424224 C 0.0 **** -0.24
12157 H 36.90245268131247 9.84466727860125 87.91878010098964 H 0.0 **** 0.06
12158 H 38.61180987985779 9.508587935157848 87.55337685355632 H 0.0 **** 0.06
12159 H 37.440658763752765 9.711672145847757 86.2275266111887 H 0.0 **** 0.06
12160 H 37.37573937587774 8.261734234906541 87.25889342501011 H 0.0 **** 0.06
12161 C 81.010566001229 56.58391499332373 86.44709895034731 C 0.0 **** -0.24
12162 H 80.90710271716912 57.66521182770193 86.53386404343436 H 0.0 **** 0.06
12163 H 81.01809753317619 56.303545456070225 85.39325030883953 H 0.0 **** 0.06
12164 H 80.17192942059698 56.097987505408206 86.9460617576923 H 0.0 **** 0.06
12165 H 81.94289233058971 56.268646440561554 86.9142702315668 H 0.0 **** 0.06
12166 C 71.20342187996951 99.28365057154987 67.95516941829888 C 0.0 **** -0.24
12167 H 70.54190356989737 98.42218493666992 68.04846040304032 H 0.0 **** 0.06
12168 H 71.04809198836192 99.7583176647465 66.98610001807916 H 0.0 **** 0.06
12169 H 72.23970142701768 98.95696927606649 68.03929265544664 H 0.0 **** 0.06
12170 H 70.98221133808376 99.99817859459226 68.74900087339381 H 0.0 **** 0.06
12171 C 9.658181579881045 30.009358527185242 47.534104605380264 C 0.0 **** -0.24
12172 H 10.731144106731449 30.16742721317513 47.648745228320024 H 0.0 **** 0.06
12173 H 9.397333879499683 30.04403713490825 46.47644276481836 H 0.0 **** 0.06
12174 H 9.118411736722521 30.790443227214745 48.06859770185435 H 0.0 **** 0.06
12175 H 9.388716155835084 29.036317631198386 47.94407592066288 H 0.0 **** 0.06
12176 C 48.63692499844661 46.94139818918407 62.50461817534078 C 0.0 **** -0.24
12177 H 48.77295058546884 46.91098460318893 63.58563055118701 H 0.0 **** 0.06
12178 H 49.360964618160146 47.627665832176916 62.06609562092699 H 0.0 **** 0.06
12179 H 47.62702354824855 47.28178688278412 62.2751005918397 H 0.0 **** 0.06
12180 H 48.78661097573761 45.943191073970326 62.091990721291864 H 0.0 **** 0.06
12181 C 38.407732715336124 68.33304018500733 12.311217648201506 C 0.0 **** -0.24
12182 H 38.76960410431121 67.32618487570579 12.518813836819248 H 0.0 **** 0.06
12183 H 37.98797031976801 68.76287992021894 13.221717031310959 H 0.0 **** 0.06
12184 H 37.63823444272214 68.29049707982428 11.540637228751223 H 0.0 **** 0.06
12185 H 39.23535402864951 68.95159343960788 11.964669643016492 H 0.0 **** 0.06
12186 C 70.8176792204766 31.60037377469098 15.286919652629706 C 0.0 **** -0.24
12187 H 70.96268840782997 32.5164373423529 15.860699787953784 H 0.0 **** 0.06
12188 H 71.25140141509186 30.760475195651054 15.829900457571565 H 0.0 **** 0.06
12189 H 71.30539792157288 31.69772518420183 14.317332189459407 H 0.0 **** 0.06
12190 H 69.75090302548912 31.42861631577432 15.142712711632726 H 0.0 **** 0.06
12191 C 62.07526943455949 34.56349974260738 42.76243662833076 C 0.0 **** -0.24
12192 H 62.88523752495931 34.100985162139835 43.32645494526627 H 0.0 **** 0.06
12193 H 61.3327585900376 34.96064157727736 43.453603507003336 H 0.0 **** 0.06
12194 H 61.61071787154603 33.817396966257846 42.117674498560206 H 0.0 **** 0.06
12195 H 62.47430734238546 35.37386967051981 42.151994938375026 H 0.0 **** 0.06
12196 C 99.39021147606769 83.90494888126085 1.4024347562907877 C 0.0 **** -0.24
12197 H 99.61782713938581 84.9173778671657 1.070261123662931 H 0.0 **** 0.06
12198 H 98.32103336296325 83.71978926272743 1.2976359037571399 H 0.0 **** 0.06
12199 H 99.6764675466599 83.79320839436434 2.4488611962969458 H 0.0 **** 0.06
12200 H 99.94525288149721 83.19038658725438 0.7958085061575702 H 0.0 **** 0.06
12201 C 18.893099757053733 42.598748181489356 67.53406852882839 C 0.0 **** -0.24
12202 H 19.322482354862075 42.59575462856216 66.53193263183825 H 0.0 **** 0.06
12203 H 19.110168015407794 43.551323980697674 68.01865544817413 H 0.0 **** 0.06
12204 H 19.32696378726689 41.78608221860537 68.1175150028491 H 0.0 **** 0.06
12205 H 17.813194115949784 42.46181746859773 67.46725869690806 H 0.0 **** 0.06
12206 C 18.37690491684836 31.923910523529607 61.28070381296686 C 0.0 **** -0.24
12207 H 18.455505213868747 31.74983847788107 62.35411363705478 H 0.0 **** 0.06
12208 H 18.005772729201055 31.021575058587096 60.792979101140446 H 0.0 **** 0.06
12209 H 19.358468262065628 32.175636244697735 60.88068605077311 H 0.0 **** 0.06
12210 H 17.6867304044015 32.74683266889718 61.09580931590841 H 0.0 **** 0.06
12211 C 76.00914611889016 73.77301243612757 49.07820742784688 C 0.0 **** -0.24
12212 H 75.7962275154853 74.48157005850261 49.878527027773885 H 0.0 **** 0.06
12213 H 77.07574251515243 73.78990615121963 48.853493273231464 H 0.0 **** 0.06
12214 H 75.44542378925013 74.05193294877189 48.187827620338595 H 0.0 **** 0.06
12215 H 75.71907880123965 72.77146540415374 49.393072671605694 H 0.0 **** 0.06
12216 C 42.94408785146011 41.05407604352311 36.99566748209489 C 0.0 **** -0.24
12217 H 43.08849126181059 40.1349301259401 37.56309511974135 H 0.0 **** 0.06
12218 H 42.255216701359494 41.70675044681347 37.53140654487339 H 0.0 **** 0.06
12219 H 42.53110048542273 40.81467327922451 36.015686122403395 H 0.0 **** 0.06
12220 H 43.902693674334174 41.55938777673626 36.87188257069832 H 0.0 **** 0.06
12221 C 63.411472573386305 77.64589040687378 12.37322825927481 C 0.0 **** -0.24
12222 H 64.31407845371093 77.09538518274212 12.107244521778611 H 0.0 **** 0.06
12223 H 62.75557904161336 77.00401603344932 12.961843326163816 H 0.0 **** 0.06
12224 H 62.8952501537826 77.95799142608536 11.465250239475694 H 0.0 **** 0.06
12225 H 63.6812059413035 78.52483921252195 12.958148411076962 H 0.0 **** 0.06
12226 C 23.83763080754204 89.14329283766112 35.40884924926249 C 0.0 **** -0.24
12227 H 24.214577361069075 88.13845280314064 35.218020758408684 H 0.0 **** 0.06
12228 H 23.339081439847575 89.52029691745618 34.516000354983426 H 0.0 **** 0.06
12229 H 24.66892340006399 89.799979291707 35.666836202416825 H 0.0 **** 0.06
12230 H 23.129361559720223 89.1145826604901 36.23626091130692 H 0.0 **** 0.06
12231 C 90.13721674602269 46.62797789204495 0.9922898844561558 C 0.0 **** -0.24
12232 H 90.11770360370477 45.61471365668052 1.3959328230015728 H 0.0 **** 0.06
12233 H 91.08892431110647 46.79960049008389 0.48851201404980316 H 0.0 **** 0.06
12234 H 90.0219397907706 47.34409611336338 1.8064014617555983 H 0.0 **** 0.06
12235 H 89.3206814829496 46.75070600263405 0.2805584085012214 H 0.0 **** 0.06
12236 C 82.68419038280376 16.889647120994 79.33319562866569 C 0.0 **** -0.24
12237 H 82.01678927247451 16.061708545483967 79.09448414887666 H 0.0 **** 0.06
12238 H 83.27854915145315 17.141269775014464 78.45408160765147 H 0.0 **** 0.06
12239 H 83.3466383975063 16.59901435804737 80.14870218525873 H 0.0 **** 0.06
12240 H 82.09502940240179 17.755311500202865 79.63370048471808 H 0.0 **** 0.06
12241 C 48.805665021364234 52.69526035295778 80.85554661715037 C 0.0 **** -0.24
12242 H 49.55223205225238 52.82858507660395 81.63921807119593 H 0.0 **** 0.06
12243 H 47.88893577130713 52.29993437083626 81.2922530681021 H 0.0 **** 0.06
12244 H 49.18511674372505 51.996793616161746 80.10937750862414 H 0.0 **** 0.06
12245 H 48.59984235141118 53.655691740688695 80.38274507753422 H 0.0 **** 0.06
12246 C 17.565451358962036 7.572007686390307 67.48312721248662 C 0.0 **** -0.24
12247 H 18.08437207796743 7.258365563759185 68.3891816456042 H 0.0 **** 0.06
12248 H 16.542965107129703 7.856871183754009 67.73022302502918 H 0.0 **** 0.06
12249 H 17.55153000569487 6.747186702638686 66.76972668638928 H 0.0 **** 0.06
12250 H 18.084622118157483 8.423841438882562 67.04316162631437 H 0.0 **** 0.06
12251 C 42.57654667883932 8.972170877619885 82.84437255935651 C 0.0 **** -0.24
12252 H 42.422950932939244 7.93420021673891 82.54872923704846 H 0.0 **** 0.06
12253 H 41.62773776075338 9.399629676590086 83.17140681241966 H 0.0 **** 0.06
12254 H 42.957621481885184 9.53886708582003 81.99504747933554 H 0.0 **** 0.06
12255 H 43.29596873128099 9.014821145660049 83.6622579929911 H 0.0 **** 0.06
12256 C 31.25519616234834 63.00773133811549 79.43574531140499 C 0.0 **** -0.24
12257 H 31.5611888922829 63.44374645920169 80.38685570571056 H 0.0 **** 0.06
12258 H 31.88005335677491 63.40472456258237 78.63567932911369 H 0.0 **** 0.06
12259 H 30.212600105730047 63.25724791398807 79.24011141262841 H 0.0 **** 0.06
12260 H 31.367195618787804 61.923925593406864 79.48087831511512 H 0.0 **** 0.06
12261 C 29.728134970613013 76.54669120112132 13.275466791508464 C 0.0 **** -0.24
12262 H 29.67778070566746 77.63552889885923 13.289201126853357 H 0.0 **** 0.06
12263 H 29.185058769950274 76.14753472687877 14.13267627638713 H 0.0 **** 0.06
12264 H 30.77020343572397 76.22989460278271 13.326681758264797 H 0.0 **** 0.06
12265 H 29.2802633590492 76.1730871357847 12.354684664798668 H 0.0 **** 0.06
12266 C 36.19360101107776 79.83419051987619 70.47086386936502 C 0.0 **** -0.24
12267 H 35.87993942279846 80.50042734557763 71.2747268075708 H 0.0 **** 0.06
12268 H 35.37269423704839 79.16672548634352 70.21136022415155 H 0.0 **** 0.06
12269 H 37.050564196962284 79.24613573203368 70.80195517201895 H 0.0 **** 0.06
12270 H 36.473652477013786 80.42413012818531 69.59816739284207 H 0.0 **** 0.06
12271 C 26.602361188368235 90.68504601587979 60.23204627777153 C 0.0 **** -0.24
12272 H 25.69743011815561 91.29001778103628 60.182451981947565 H 0.0 **** 0.06
12273 H 27.451275799895427 91.32152831842062 60.480760865514696 H 0.0 **** 0.06
12274 H 26.77437509995511 90.20939485398753 59.26632949252826 H 0.0 **** 0.06
12275 H 26.485077518580027 89.91891290339296 60.99912929115084 H 0.0 **** 0.06
12276 C 49.616179043502825 58.504681465558455 62.65343886619735 C 0.0 **** -0.24
12277 H 49.20193313201406 57.69964493912181 63.260989074276495 H 0.0 **** 0.06
12278 H 49.462718101212886 58.27961006082086 61.597976259507845 H 0.0 **** 0.06
12279 H 50.68352553929685 58.59950000381549 62.85414170206161 H 0.0 **** 0.06
12280 H 49.11503182474354 59.44026497199744 62.9022735258136 H 0.0 **** 0.06
12281 C 82.04536813297914 75.70159274501765 75.87145541480587 C 0.0 **** -0.24
12282 H 82.42983668076401 74.89783160004121 75.24306008247598 H 0.0 **** 0.06
12283 H 82.85281213916062 76.09778286287025 76.48766909524113 H 0.0 **** 0.06
12284 H 81.2550329121992 75.31397451365874 76.51331832526958 H 0.0 **** 0.06
12285 H 81.64536674041443 76.49574387604966 75.24057460098882 H 0.0 **** 0.06
12286 C 60.99100262206616 77.29059657349546 64.46808811604002 C 0.0 **** -0.24
12287 H 60.6425604040283 77.13238765507197 65.48788152092406 H 0.0 **** 0.06
12288 H 61.4713714089317 76.38166478312439 64.10336271146585 H 0.0 **** 0.06
12289 H 61.707570324677704 78.11171025030905 64.45319663765383 H 0.0 **** 0.06
12290 H 60.14330814159956 77.53554646330542 63.828359021473005 H 0.0 **** 0.06
12291 C 47.979876421567056 24.315624433237996 53.0784503303004 C 0.0 **** -0.24
12292 H 47.416048353156654 24.01389299845433 53.96087694799641 H 0.0 **** 0.06
12293 H 48.62293864552671 25.159167575339254 53.32841758142027 H 0.0 **** 0.06
12294 H 47.28882346292865 24.605833323969566 52.28723082750318 H 0.0 **** 0.06
12295 H 48.5926514635892 23.4804285804717 52.73721374602101 H 0.0 **** 0.06
12296 C 93.51793523760539 94.24943997496244 32.61295365492925 C 0.0 **** -0.24
12297 H 94.12643784382192 94.676541872978 31.81621830019565 H 0.0 **** 0.06
12298 H 92.50237106559835 94.63975776341663 32.54382940468175 H 0.0 **** 0.06
12299 H 93.94495269988171 94.51802427644571 33.57918202652677 H 0.0 **** 0.06
12300 H 93.4976872454608 93.16481925984212 32.512621336802596 H 0.0 **** 0.06
12301 C 11.581149310650959 12.269166691546047 58.44255362783258 C 0.0 **** -0.24
12302 H 12.017403206907318 11.648098099199444 57.6598460993016 H 0.0 **** 0.06
12303 H 11.565023251662872 11.714090249089736 59.38081949027173 H 0.0 **** 0.06
12304 H 10.56397247735584 12.54292414591714 58.16433823953275 H 0.0 **** 0.06
12305 H 12.180492011930616 13.172321407191248 58.56482248631386 H 0.0 **** 0.06
12306 C 17.462160386057406 59.38707409487653 38.315428917859094 C 0.0 **** -0.24
12307 H 17.305396248471453 59.832558170192506 39.29813369571332 H 0.0 **** 0.06
12308 H 17.425406217718674 58.300738996090494 38.398692989208655 H 0.0 **** 0.06
12309 H 18.436954314806314 59.689792383466695 37.931889896177154 H 0.0 **** 0.06
12310 H 16.68185798914689 59.72645333330408 37.63370563005441 H 0.0 **** 0.06
12311 C 94.23911935634852 92.70103589497242 90.02301495795902 C 0.0 **** -0.24
12312 H 93.92170885465363 93.2128898494378 89.11436110555857 H 0.0 **** 0.06
12313 H 95.14280916992399 93.17310385866088 90.408590202178 H 0.0 **** 0.06
12314 H 94.44339282152954 91.65388485362016 89.79763572453777 H 0.0 **** 0.06
12315 H 93.44759738624779 92.76390133904064 90.77050921539869 H 0.0 **** 0.06
12316 C 57.38755240387583 39.81104771082377 99.95308541793484 C 0.0 **** -0.24
12317 H 56.77881659984245 40.14389708511115 99.11228595854739 H 0.0 **** 0.06
12318 H 57.329080465864536 38.72557997698112 100.03727905327236 H 0.0 **** 0.06
12319 H 57.01753168828863 40.26695570725116 100.8721378304687 H 0.0 **** 0.06
12320 H 58.423017689194076 40.10792485134189 99.79200398106708 H 0.0 **** 0.06
12321 C 18.244824009294135 46.565572337491574 16.15513965938308 C 0.0 **** -0.24
12322 H 18.974852244563806 45.771870973993884 15.996995358762973 H 0.0 **** 0.06
12323 H 18.422023504519203 47.36927161177431 15.440018304923086 H 0.0 **** 0.06
12324 H 18.343259744283188 46.95251025699537 17.16913085073341 H 0.0 **** 0.06
12325 H 17.239837655008813 46.16790817850273 16.014308748653434 H 0.0 **** 0.06
12326 C 101.47575361552418 90.85181236836559 44.14691594947729 C 0.0 **** -0.24
12327 H 100.6824321277455 91.48686780372674 44.54127913453996 H 0.0 **** 0.06
12328 H 101.67129300494085 90.03891799093313 44.845744793330766 H 0.0 **** 0.06
12329 H 102.38153895242917 91.44305002885935 44.01384588610688 H 0.0 **** 0.06
12330 H 101.16652841282952 90.438589535957 43.186104085519645 H 0.0 **** 0.06
12331 C 66.6533655005421 97.56158155062687 26.86467024617494 C 0.0 **** -0.24
12332 H 65.70305029856311 97.32978392183117 26.381609505734744 H 0.0 **** 0.06
12333 H 67.02652804438165 96.67457532816883 27.37670968765576 H 0.0 **** 0.06
12334 H 66.50479011703169 98.36343259850369 27.588269571945574 H 0.0 **** 0.06
12335 H 67.37451853033448 97.87887018662087 26.113070736616407 H 0.0 **** 0.06
12336 C 103.26262505824243 78.90655958048859 76.05068387427087 C 0.0 **** -0.24
12337 H 104.13297998201286 79.1970922794049 75.46290182867335 H 0.0 **** 0.06
12338 H 102.85685779344314 77.97222876452406 75.66195313269566 H 0.0 **** 0.06
12339 H 102.50477407163771 79.68661376687021 75.9870992949414 H 0.0 **** 0.06
12340 H 103.55652987148315 78.76973112132282 77.09190416472043 H 0.0 **** 0.06
12341 C 29.055587948540904 49.04292300199744 99.70411500406571 C 0.0 **** -0.24
12342 H 28.750198772991496 48.64826395213756 100.67368472217335 H 0.0 **** 0.06
12343 H 28.1841690324693 49.44688486127351 99.1867392273147 H 0.0 **** 0.06
12344 H 29.493262738606234 48.24257724837704 99.10791777557458 H 0.0 **** 0.06
12345 H 29.79128693515463 49.83326521716831 99.84942791113535 H 0.0 **** 0.06
12346 C 1.1987781846387353 61.541060126757515 20.41141055623808 C 0.0 **** -0.24
12347 H 0.2581129133918627 61.19520194102002 19.982035773937554 H 0.0 **** 0.06
12348 H 1.0932799312894348 62.5778728409755 20.730650619298473 H 0.0 **** 0.06
12349 H 1.987351408213299 61.46931300802419 19.6628176786854 H 0.0 **** 0.06
12350 H 1.4549840938222989 60.920165873469244 21.27062625993193 H 0.0 **** 0.06
12351 C 23.362754245130606 45.659497084768645 38.13239993006334 C 0.0 **** -0.24
12352 H 23.465272537567976 46.703618072502195 38.42978371834951 H 0.0 **** 0.06
12353 H 22.331480292963622 45.339531939374524 38.27942721254172 H 0.0 **** 0.06
12354 H 24.026316571509906 45.042753091435884 38.73931890000648 H 0.0 **** 0.06
12355 H 23.630228065992533 45.55505141203366 37.081027231357695 H 0.0 **** 0.06
12356 C 14.823113697943569 97.55455363890236 4.028393497702368 C 0.0 **** -0.24
12357 H 15.66912322053193 97.81637225633968 4.665046209809404 H 0.0 **** 0.06
12358 H 14.058568204617316 97.05921865281152 4.627551392675187 H 0.0 **** 0.06
12359 H 15.157684828861619 96.8823675851791 3.2379880361233546 H 0.0 **** 0.06
12360 H 14.40847010154107 98.4597679192517 3.58540198763329 H 0.0 **** 0.06
12361 C 39.83433375091116 96.08918779462638 44.58457644104644 C 0.0 **** -0.24
12362 H 40.17312141425361 96.99567123142558 45.087440700293484 H 0.0 **** 0.06
12363 H 39.38441463542307 95.4163297029863 45.314917804067306 H 0.0 **** 0.06
12364 H 40.68432398559885 95.59807636548226 44.11144871440629 H 0.0 **** 0.06
12365 H 39.095821382528214 96.34892273603828 43.82645380804459 H 0.0 **** 0.06
12366 C 74.49766903288153 33.50112124819944 100.09639183503805 C 0.0 **** -0.24
12367 H 73.60331719386699 33.92430650439562 99.63664751895386 H 0.0 **** 0.06
12368 H 74.66160250584022 33.96887186676793 101.06768423553505 H 0.0 **** 0.06
12369 H 75.35758745377558 33.68532304553176 99.45361299028488 H 0.0 **** 0.06
12370 H 74.36379258499416 32.427668757673786 100.22753116231517 H 0.0 **** 0.06
12371 C 57.06623593366788 76.50834695803749 0.30498689855963024 C 0.0 **** -0.24
12372 H 58.05474975739676 76.95735573099509 0.2138649917193094 H 0.0 **** 0.06
12373 H 56.940012972142455 76.10806347432442 1.3118392646902608 H 0.0 **** 0.06
12374 H 56.965315104937865 75.7015799113035 -0.4212807141357966 H 0.0 **** 0.06
12375 H 56.30457108696171 77.26472731788444 0.11591518004511725 H 0.0 **** 0.06
12376 C 58.359710071556975 6.699984352679905 44.01264614685638 C 0.0 **** -0.24
12377 H 58.33972495620554 5.9346140242430465 44.78842804879994 H 0.0 **** 0.06
12378 H 59.36018153690071 7.130757963214478 43.952873729248836 H 0.0 **** 0.06
12379 H 57.64119003891463 7.482380471200656 44.256354928304944 H 0.0 **** 0.06
12380 H 58.098680109925795 6.252895868476173 43.05371396498225 H 0.0 **** 0.06
12381 C 23.98744605192196 47.41644936753744 72.34331249762069 C 0.0 **** -0.24
12382 H 24.165398637471718 48.49198987253081 72.34220662768003 H 0.0 **** 0.06
12383 H 23.216018210694013 47.176169307544825 73.07462998371966 H 0.0 **** 0.06
12384 H 24.90891580647491 46.895887422826405 72.60167155461089 H 0.0 **** 0.06
12385 H 23.658729664782747 47.10255548699271 71.35194327505637 H 0.0 **** 0.06
12386 C 27.840354881781025 32.97224165072299 9.313588708576045 C 0.0 **** -0.24
12387 H 27.364726848422293 32.37570647159518 10.091939177294083 H 0.0 **** 0.06
12388 H 28.68741148530964 33.512056892307655 9.736767532788935 H 0.0 **** 0.06
12389 H 27.119716329710485 33.683212286581266 8.90892890079571 H 0.0 **** 0.06
12390 H 28.189876939236086 32.315926868666764 8.515917726451175 H 0.0 **** 0.06
12391 C 103.05973780103126 39.82665505644301 61.60095946516162 C 0.0 **** -0.24
12392 H 103.50459716166809 40.64767292383123 61.03712828510382 H 0.0 **** 0.06
12393 H 103.43989661924569 38.878373595902275 61.220773641018695 H 0.0 **** 0.06
12394 H 101.97576249544274 39.85635269416736 61.48949510335501 H 0.0 **** 0.06
12395 H 103.31976288768494 39.92774959397667 62.65459438789668 H 0.0 **** 0.06
12396 C 69.44828516779049 40.5501226843589 17.463297121139647 C 0.0 **** -0.24
12397 H 68.57736680022462 39.94105015645749 17.706491659542735 H 0.0 **** 0.06
12398 H 69.90407788448957 40.18082974987536 16.543506096491683 H 0.0 **** 0.06
12399 H 70.17076586424709 40.49133021395846 18.27681710040963 H 0.0 **** 0.06
12400 H 69.13967668741822 41.58626082739832 17.32574987474686 H 0.0 **** 0.06
12401 C 60.72841685434925 86.78035855712355 100.89312059439891 C 0.0 **** -0.24
12402 H 60.18158197542819 87.71157302186649 101.0398411631908 H 0.0 **** 0.06
12403 H 61.14746091377873 86.45101594549197 101.84561331103075 H 0.0 **** 0.06
12404 H 61.534454400329835 86.9408554854248 100.1776662756582 H 0.0 **** 0.06
12405 H 60.049430281486046 86.01703256059875 100.51210694755218 H 0.0 **** 0.06
12406 C 64.55709644182824 37.197225127725034 46.11366141772652 C 0.0 **** -0.24
12407 H 64.91999568253459 36.52428515967673 46.89059169170963 H 0.0 **** 0.06
12408 H 63.483467654504636 37.34507900366245 46.234592036413744 H 0.0 **** 0.06
12409 H 64.75582064654711 36.76214856915105 45.13441846147924 H 0.0 **** 0.06
12410 H 65.06819903552571 38.15651558953365 46.19689403864879 H 0.0 **** 0.06
12411 C 66.83688064204762 26.89780059558521 20.421626725385664 C 0.0 **** -0.24
12412 H 67.03155075277192 27.266434625350115 21.42854091594637 H 0.0 **** 0.06
12413 H 65.90083420122784 26.33934808347081 20.413974275608794 H 0.0 **** 0.06
12414 H 67.65247778509536 26.244744581760614 20.110905216411226 H 0.0 **** 0.06
12415 H 66.76372132352702 27.74003966603641 19.734298764942906 H 0.0 **** 0.06
12416 C 38.91306517572576 53.053174208832445 55.32644423642466 C 0.0 **** -0.24
12417 H 39.111308816436605 52.04489426642181 54.96318026336735 H 0.0 **** 0.06
12418 H 38.104968690112145 53.49772475025071 54.74483385929926 H 0.0 **** 0.06
12419 H 39.813213046657836 53.65981302425274 55.22153990070859 H 0.0 **** 0.06
12420 H 38.62446590925205 53.010398173140175 56.376549645122225 H 0.0 **** 0.06
12421 C 102.33680698379364 32.03621605447046 41.48604737930569 C 0.0 **** -0.24
12422 H 102.23834146242085 31.11850442073495 40.90760591193083 H 0.0 **** 0.06
12423 H 102.6015618640891 31.790096632711567 42.51512408343467 H 0.0 **** 0.06
12424 H 101.39054392056215 32.576303343429345 41.47440250100982 H 0.0 **** 0.06
12425 H 103.11742928743013 32.65986390604837 41.04941718938383 H 0.0 **** 0.06
12426 C 70.3553591224002 36.04809971781279 26.32080356545552 C 0.0 **** -0.24
12427 H 69.64991067708057 35.72120202444057 27.08372428588322 H 0.0 **** 0.06
12428 H 69.96348555539366 35.80077300151564 25.333843412532445 H 0.0 **** 0.06
12429 H 71.31090190015891 35.545119862891 26.470115265725212 H 0.0 **** 0.06
12430 H 70.49709365959728 37.12684009152707 26.396330365294375 H 0.0 **** 0.06
12431 C 106.2356258121041 40.32102187959843 16.940586986478408 C 0.0 **** -0.24
12432 H 107.31204422942434 40.149855216632886 16.927242552295837 H 0.0 **** 0.06
12433 H 106.02131816432427 41.320298076651895 16.55936382338379 H 0.0 **** 0.06
12434 H 105.86811255568618 40.23640065943222 17.96367056110776 H 0.0 **** 0.06
12435 H 105.74226342385927 39.578382518528414 16.313730519846757 H 0.0 **** 0.06
12436 C 93.18830751882416 1.5362949444693896 30.67713480475865 C 0.0 **** -0.24
12437 H 92.59781041159289 1.0648948344959308 31.463136609858935 H 0.0 **** 0.06
12438 H 92.69416922090986 1.3936780761485892 29.716676358198498 H 0.0 **** 0.06
12439 H 94.179866319631 1.08431733139021 30.647199852880988 H 0.0 **** 0.06
12440 H 93.28217267223 2.6026326427530933 30.883590543986912 H 0.0 **** 0.06
12441 C 14.651200150877685 92.46143930666162 9.931484964581102 C 0.0 **** -0.24
12442 H 14.166791521532332 92.99197128318376 9.111704621182525 H 0.0 **** 0.06
12443 H 14.087356124938594 91.55715476534624 10.162294686722817 H 0.0 **** 0.06
12444 H 14.68315156595304 93.10441978431183 10.811173505285979 H 0.0 **** 0.06
12445 H 15.666905004524466 92.1929845236811 9.640983006497322 H 0.0 **** 0.06
12446 C 29.256893778986665 68.34162527052743 63.7159615233725 C 0.0 **** -0.24
12447 H 29.91488945337818 69.03578955537404 63.19365000357381 H 0.0 **** 0.06
12448 H 29.79449404023873 67.88801212816776 64.54847204699733 H 0.0 **** 0.06
12449 H 28.930745777639686 67.56276313225845 63.02603978943658 H 0.0 **** 0.06
12450 H 28.387837188450817 68.8796841901887 64.09434881355968 H 0.0 **** 0.06
12451 C 52.3025032293467 17.92320721541478 77.74000745709324 C 0.0 **** -0.24
12452 H 52.3785376894642 17.226259646227394 76.90473707919458 H 0.0 **** 0.06
12453 H 52.83884596456383 17.5204209633954 78.59853023506793 H 0.0 **** 0.06
12454 H 51.25390527759446 18.066500380049508 77.999217939089 H 0.0 **** 0.06
12455 H 52.74006358387444 18.879736792286867 77.45451174192141 H 0.0 **** 0.06
12456 C 80.25028311285311 95.69003729919078 6.160249453726896 C 0.0 **** -0.24
12457 H 81.03701359050785 94.93649223135306 6.166134519934975 H 0.0 **** 0.06
12458 H 80.63911133717647 96.6178805812411 5.7399469527780465 H 0.0 **** 0.06
12459 H 79.90999560997182 95.86789386628217 7.181013982607629 H 0.0 **** 0.06
12460 H 79.41435418261841 95.33779481678165 5.5551512752618954 H 0.0 **** 0.06
12461 C 14.949297356201924 9.266363197264823 24.760421436652507 C 0.0 **** -0.24
12462 H 15.60675030080884 8.541318080843535 25.23956638860568 H 0.0 **** 0.06
12463 H 14.312452367197608 9.732541262406098 25.512009198575896 H 0.0 **** 0.06
12464 H 14.328990080408829 8.760382323972271 24.020782378914163 H 0.0 **** 0.06
12465 H 15.550327761960148 10.031299041750879 24.268222964039353 H 0.0 **** 0.06
12466 C 41.359512916117865 58.392508815158266 21.50424134223229 C 0.0 **** -0.24
12467 H 41.6306212957452 57.65641173541484 22.26059708604126 H 0.0 **** 0.06
12468 H 42.19987636048373 59.0675379651846 21.337002843569394 H 0.0 **** 0.06
12469 H 40.496214206300834 58.96361168826549 21.845763745920266 H 0.0 **** 0.06
12470 H 41.111977121272815 57.882870897022606 20.572941207920806 H 0.0 **** 0.06
12471 C 103.10368682187519 70.7067511184876 90.31948221736559 C 0.0 **** -0.24
12472 H 102.23493697679329 71.348263610163 90.46448256059432 H 0.0 **** 0.06
12473 H 103.23184797481184 70.06483977064613 91.19106540275328 H 0.0 **** 0.06
12474 H 103.99295782133154 71.3240030169899 90.18767576832153 H 0.0 **** 0.06
12475 H 102.9555951253826 70.09059814958539 89.43202905026999 H 0.0 **** 0.06
12476 C 23.32893528055527 100.13494086822755 94.28311332671635 C 0.0 **** -0.24
12477 H 24.238248734852064 100.18035941804106 94.88204394269601 H 0.0 **** 0.06
12478 H 23.440278615511914 100.77061278796742 93.40464842536787 H 0.0 **** 0.06
12479 H 22.48376494928449 100.48238740416153 94.87848278115356 H 0.0 **** 0.06
12480 H 23.15170151694025 99.10609770837746 93.96896737901366 H 0.0 **** 0.06
12481 C 88.5707223911759 37.645849689529996 19.213979590799084 C 0.0 **** -0.24
12482 H 89.56934901837832 37.46686822748137 19.61190192150582 H 0.0 **** 0.06
12483 H 88.17335617690264 38.57197953041563 19.630340440202133 H 0.0 **** 0.06
12484 H 87.91778258612081 36.81549186018606 19.48533960265337 H 0.0 **** 0.06
12485 H 88.62146962873126 37.727603724031326 18.128450373615436 H 0.0 **** 0.06
12486 C 97.23576779580883 61.42235108540507 63.9237037251352 C 0.0 **** -0.24
12487 H 97.81766103412087 60.58453763087124 63.53796075586419 H 0.0 **** 0.06
12488 H 96.55561350222764 61.0656372252007 64.69761205157195 H 0.0 **** 0.06
12489 H 96.6606944738683 61.86804205244715 63.112637820924476 H 0.0 **** 0.06
12490 H 97.90806440155124 62.168649441924856 64.345386879227 H 0.0 **** 0.06
12491 C 18.916865908108832 45.180349308950724 79.94215425323566 C 0.0 **** -0.24
12492 H 19.50036554711238 45.67881045176358 80.71589151144038 H 0.0 **** 0.06
12493 H 19.55025646816665 44.467170219828745 79.41242621052007 H 0.0 **** 0.06
12494 H 18.536682970999777 45.92073439968158 79.23917807800248 H 0.0 **** 0.06
12495 H 18.08101368177978 44.65239782671273 80.40134702509725 H 0.0 **** 0.06
12496 C 40.03218435885299 87.26610690003554 26.074569122356245 C 0.0 **** -0.24
12497 H 40.05660797207912 87.54596417844189 27.127975084048618 H 0.0 **** 0.06
12498 H 40.20354845801717 88.14998025964304 25.45987167401535 H 0.0 **** 0.06
12499 H 39.05727068036444 86.84013026911568 25.83450245851934 H 0.0 **** 0.06
12500 H 40.80948109870428 86.52866869268301 25.876671843894425 H 0.0 **** 0.06
12501 C 100.91664220572747 10.033327493194776 93.25660442689751 C 0.0 **** -0.24
12502 H 101.36336895075208 9.587489239857575 94.14528669517954 H 0.0 **** 0.06
12503 H 100.964068253385 11.119924621447723 93.33313670930039 H 0.0 **** 0.06
12504 H 99.87535595806894 9.71956514220048 93.17737131380048 H 0.0 **** 0.06
12505 H 101.46202092371354 9.70670845265957 92.37195664392318 H 0.0 **** 0.06
12506 C 98.13906245498075 15.534026479547748 77.64419463194338 C 0.0 **** -0.24
12507 H 98.21170581629363 15.386908180570543 76.56670131563382 H 0.0 **** 0.06
12508 H 99.10631567672792 15.331637018397643 78.10355330759288 H 0.0 **** 0.06
12509 H 97.39139651848078 14.85395040957279 78.05395670198615 H 0.0 **** 0.06
12510 H 97.84577445572032 16.562773862484462 77.85108985845787 H 0.0 **** 0.06
12511 C 88.29969281654434 106.02582320166061 24.96133535621604 C 0.0 **** -0.24
12512 H 89.2518910696318 105.92197932230204 24.440258890163392 H 0.0 **** 0.06
12513 H 88.29698216310354 105.38436231631141 25.842539808942348 H 0.0 **** 0.06
12514 H 87.48842366962958 105.73146711502278 24.29500165222106 H 0.0 **** 0.06
12515 H 88.16338057724724 107.06320799807708 25.265263669538598 H 0.0 **** 0.06
12516 C 48.57570057012186 100.71855165625075 29.296055194519113 C 0.0 **** -0.24
12517 H 49.594177164178234 100.669432825636 29.68133493339664 H 0.0 **** 0.06
12518 H 48.41158643253906 101.68866634247908 28.825579039334997 H 0.0 **** 0.06
12519 H 47.87059216563663 100.58858218313347 30.116711490210633 H 0.0 **** 0.06
12520 H 48.426914634645094 99.92883403601584 28.560856275611087 H 0.0 **** 0.06
12521 C 67.31678616510428 28.24660119745451 83.07626187300829 C 0.0 **** -0.24
12522 H 66.83181801681414 27.27102916656588 83.0419717091396 H 0.0 **** 0.06
12523 H 68.14603606723696 28.26446418261426 82.36946402720324 H 0.0 **** 0.06
12524 H 67.69270168673481 28.429476806226944 84.08293001155084 H 0.0 **** 0.06
12525 H 66.59569824121016 29.019916980182074 82.81238578267192 H 0.0 **** 0.06
12526 C 14.488378122734645 100.39378000452471 78.54131453629793 C 0.0 **** -0.24
12527 H 14.045819568943159 100.33567041620509 77.54631455500788 H 0.0 **** 0.06
12528 H 15.0781618380191 99.49696028062328 78.72966855534469 H 0.0 **** 0.06
12529 H 13.697812185561446 100.47251725018235 79.28605982711827 H 0.0 **** 0.06
12530 H 15.132868417331707 101.27176651714039 78.60110357705759 H 0.0 **** 0.06
12531 C 52.29861413196531 0.5005737557393388 104.84281555658919 C 0.0 **** -0.24
12532 H 52.452052900418174 1.5565560689119877 105.06337522742143 H 0.0 **** 0.06
12533 H 53.163606995947745 -0.07011017714796708 105.1827213705169 H 0.0 **** 0.06
12534 H 52.173893973024434 0.3679383612593199 103.76822334005703 H 0.0 **** 0.06
12535 H 51.40535342836927 0.1491004906842477 105.35878120143025 H 0.0 **** 0.06
12536 C 7.96893398843784 95.6665457253124 35.22431115395301 C 0.0 **** -0.24
12537 H 8.645958543577422 94.99011879200117 35.74600844360677 H 0.0 **** 0.06
12538 H 8.32913342020069 96.69053061648299 35.326502387693 H 0.0 **** 0.06
12539 H 6.971611585311933 95.58678478054634 35.656165175557966 H 0.0 **** 0.06
12540 H 7.930401079590922 95.39826693145619 34.16762269438244 H 0.0 **** 0.06
12541 C 44.724977263124885 75.80220395792357 10.574979569067864 C 0.0 **** -0.24
12542 H 44.35592778808298 76.51541112426823 11.312807315247838 H 0.0 **** 0.06
12543 H 45.521321613120016 76.26417533749417 9.991649631045988 H 0.0 **** 0.06
12544 H 43.9105460319135 75.51079885201392 9.91261298791241 H 0.0 **** 0.06
12545 H 45.11210498350058 74.92032580074772 11.085570167729117 H 0.0 **** 0.06
12546 C 101.18614129004598 57.30967282237924 64.89775870325039 C 0.0 **** -0.24
12547 H 101.02859182711936 57.28138901258575 65.97590614051313 H 0.0 **** 0.06
12548 H 100.44899795506157 57.9702748113931 64.44104715866419 H 0.0 **** 0.06
12549 H 101.07928692234185 56.30553040954737 64.48830072902501 H 0.0 **** 0.06
12550 H 102.18830689699425 57.683946341429 64.68739910046443 H 0.0 **** 0.06
12551 C 39.21986516033152 54.01299313139512 62.32223457410788 C 0.0 **** -0.24
12552 H 38.5466719571717 53.22702874558752 61.97897573181828 H 0.0 **** 0.06
12553 H 38.78757395784754 54.98700515152504 62.092259304133506 H 0.0 **** 0.06
12554 H 40.18126452433097 53.91229448398761 61.818720179257326 H 0.0 **** 0.06
12555 H 39.3626603379727 53.92293587904999 63.39893876818644 H 0.0 **** 0.06
12556 C 70.46060804802669 68.07032621780246 38.62991515514888 C 0.0 **** -0.24
12557 H 70.36740420064973 69.05218092021752 39.092645136379005 H 0.0 **** 0.06
12558 H 69.52052784380153 67.80486445385324 38.1469110747721 H 0.0 **** 0.06
12559 H 70.69770493177145 67.33011494290591 39.39497273803067 H 0.0 **** 0.06
12560 H 71.25813401666781 68.09306074999532 37.8868732962656 H 0.0 **** 0.06
12561 C 101.205903677704 89.76288643775769 102.06635141805897 C 0.0 **** -0.24
12562 H 100.30620285446935 90.36929418080217 101.95440116207517 H 0.0 **** 0.06
12563 H 101.32270528701622 89.47649602791273 103.11220307453073 H 0.0 **** 0.06
12564 H 102.0738718464305 90.34032470337166 101.74808106973472 H 0.0 **** 0.06
12565 H 101.1183057937361 88.86737218387259 101.45163480762768 H 0.0 **** 0.06
12566 C 95.74408234510369 12.897258631594354 2.7970515605098036 C 0.0 **** -0.24
12567 H 94.84157041495334 12.28996601716085 2.7351681189621795 H 0.0 **** 0.06
12568 H 96.20649226060695 12.761439961111165 3.7749288968850125 H 0.0 **** 0.06
12569 H 95.4869497338394 13.94691970578252 2.6586640297472073 H 0.0 **** 0.06
12570 H 96.44247223451885 12.589099271321317 2.0184084333726933 H 0.0 **** 0.06
12571 C 39.318994296774804 11.19415503721433 28.258135654963127 C 0.0 **** -0.24
12572 H 40.19269018044557 11.06358693604166 27.618433966258976 H 0.0 **** 0.06
12573 H 39.23440889649933 10.342722605261471 28.934247984825717 H 0.0 **** 0.06
12574 H 38.42335760831392 11.259370292512585 27.640683972750097 H 0.0 **** 0.06
12575 H 39.42820906315549 12.110466300167701 28.838436887705626 H 0.0 **** 0.06
12576 C 38.40587194078364 34.83460640834569 79.64556756043012 C 0.0 **** -0.24
12577 H 37.80962091634345 33.92253872811369 79.6140559375031 H 0.0 **** 0.06
12578 H 38.28723555670586 35.37937090413642 78.70871443439492 H 0.0 **** 0.06
12579 H 39.4562222703356 34.57705413223992 79.78646389910692 H 0.0 **** 0.06
12580 H 38.07112963567498 35.458460837579466 80.4742520246381 H 0.0 **** 0.06
12581 C 67.20599343305751 25.972248167706873 30.051653270861514 C 0.0 **** -0.24
12582 H 68.09899106822108 25.347519252875536 30.04223516003384 H 0.0 **** 0.06
12583 H 67.36426785801073 26.823577005605394 30.713167512335062 H 0.0 **** 0.06
12584 H 66.35793113226087 25.38759404926173 30.408403340444593 H 0.0 **** 0.06
12585 H 67.00167911180057 26.32867550394286 29.041742409888528 H 0.0 **** 0.06
12586 C 81.50689389851038 42.3119175335583 101.40415582141108 C 0.0 **** -0.24
12587 H 82.21230330697995 41.55419532907109 101.74704266929375 H 0.0 **** 0.06
12588 H 80.49023331868528 41.985997090627336 101.62136030304852 H 0.0 **** 0.06
12589 H 81.62221530661323 42.45424438369861 100.32976123022361 H 0.0 **** 0.06
12590 H 81.70606292993372 43.25136511471436 101.91832658812473 H 0.0 **** 0.06
12591 C 39.72893414611585 78.98449728955043 53.85805443947899 C 0.0 **** -0.24
12592 H 40.77883302332637 78.92305508036213 54.14412243908822 H 0.0 **** 0.06
12593 H 39.25286833562424 79.80327877045252 54.39796272627561 H 0.0 **** 0.06
12594 H 39.229470272263285 78.04734825246942 54.104341346535136 H 0.0 **** 0.06
12595 H 39.65456495324972 79.16430705491743 52.785791246017055 H 0.0 **** 0.06
12596 C 53.92257891439715 5.235415728551315 74.02436136298604 C 0.0 **** -0.24
12597 H 53.01570210605897 4.959952827053204 73.48529978203916 H 0.0 **** 0.06
12598 H 54.7886452747652 5.079725025401897 73.38092047060752 H 0.0 **** 0.06
12599 H 54.01621408502646 4.615332593257721 74.91656096068235 H 0.0 **** 0.06
12600 H 53.868108464932334 6.28489438481226 74.31511257034609 H 0.0 **** 0.06
12601 C 64.82186222749743 38.28212161853339 28.926496851343444 C 0.0 **** -0.24
12602 H 64.0855944994695 39.05310063238631 28.69723293299657 H 0.0 **** 0.06
12603 H 65.6680869317388 38.73118043705295 29.446461884039735 H 0.0 **** 0.06
12604 H 65.16748440141659 37.82297093247102 27.99925645248652 H 0.0 **** 0.06
12605 H 64.3660970720545 37.521953775240554 29.56092705182374 H 0.0 **** 0.06
12606 C 44.8656549291955 43.74246223407937 70.67157340014774 C 0.0 **** -0.24
12607 H 44.01477169485776 43.774227108064906 71.3523585637206 H 0.0 **** 0.06
12608 H 44.601073761229486 43.16185728141576 69.78718861159342 H 0.0 **** 0.06
12609 H 45.71423150892258 43.275853290951034 71.17199281970778 H 0.0 **** 0.06
12610 H 45.131901603781046 44.75673077059079 70.37519573204168 H 0.0 **** 0.06
12611 C 19.83723628373145 14.286376706474034 35.284008151170156 C 0.0 **** -0.24
12612 H 19.057448728194693 14.609665332236986 34.594178059090495 H 0.0 **** 0.06
12613 H 20.778619063456045 14.76998324518156 35.02146115212332 H 0.0 **** 0.06
12614 H 19.952795307331606 13.20524382060859 35.21992679793618 H 0.0 **** 0.06
12615 H 19.558821028104333 14.562243703825402 36.301791584351975 H 0.0 **** 0.06
12616 C 4.189042317677121 72.33805558182046 21.144597413448253 C 0.0 **** -0.24
12617 H 4.227705903315524 71.63994119708313 20.308349158842347 H 0.0 **** 0.06
12618 H 3.5422411476189524 73.1770052801673 20.887196222629072 H 0.0 **** 0.06
12619 H 5.193025617725411 72.70444408610926 21.357371181746075 H 0.0 **** 0.06
12620 H 3.793340143155916 71.82983724291547 22.02447789410516 H 0.0 **** 0.06
12621 C 70.58628688532009 75.59536213138642 60.14331461073465 C 0.0 **** -0.24
12622 H 71.15356737614574 76.47778410725675 60.441034369930165 H 0.0 **** 0.06
12623 H 70.93657468493723 74.73140202841194 60.70844921748076 H 0.0 **** 0.06
12624 H 70.72870135906857 75.41483635282856 59.07747583109496 H 0.0 **** 0.06
12625 H 69.52831050192269 75.75815405520405 60.34563219918231 H 0.0 **** 0.06
12626 C 95.19229346590942 98.68440097152975 21.583763729377097 C 0.0 **** -0.24
12627 H 94.17052327049589 98.43311431166651 21.301701101779372 H 0.0 **** 0.06
12628 H 95.19644408606098 99.62798327566531 22.130513187605118 H 0.0 **** 0.06
12629 H 95.80336849706174 98.7809898855702 20.686602888755516 H 0.0 **** 0.06
12630 H 95.5990714907162 97.89594121748502 22.217112424538158 H 0.0 **** 0.06
12631 C 14.769088950553325 70.25124986826182 14.74740276871546 C 0.0 **** -0.24
12632 H 14.496229843824324 70.14023835060112 15.796415645997143 H 0.0 **** 0.06
12633 H 15.500583177934615 71.05350501886642 14.645389916540779 H 0.0 **** 0.06
12634 H 13.880823459876623 70.49335737567134 14.164860041644232 H 0.0 **** 0.06
12635 H 15.198719320578107 69.31789872790856 14.382945470679374 H 0.0 **** 0.06
12636 C 51.53223266504477 102.3261987133094 44.57987300287175 C 0.0 **** -0.24
12637 H 50.62308833222636 101.75703459368935 44.77284314848018 H 0.0 **** 0.06
12638 H 51.78956079615864 102.91037100347023 45.46375631206166 H 0.0 **** 0.06
12639 H 51.368191476751065 102.99690945517534 43.736401425783896 H 0.0 **** 0.06
12640 H 52.347193837781106 101.64179299208331 44.34717848364639 H 0.0 **** 0.06
12641 C 24.84920981625362 7.5210020692827175 89.60822134677059 C 0.0 **** -0.24
12642 H 25.421034019992362 8.28331970537218 89.07874554443471 H 0.0 **** 0.06
12643 H 24.129699092290707 8.002374948900135 90.27050389445878 H 0.0 **** 0.06
12644 H 25.526548409528232 6.902299528907967 90.19600638945005 H 0.0 **** 0.06
12645 H 24.320728839955848 6.8979162534587815 88.88752683657326 H 0.0 **** 0.06
12646 C 104.18317107803196 36.75691004631429 97.1165595581239 C 0.0 **** -0.24
12647 H 104.59641523541308 37.73021334976012 96.85306453668278 H 0.0 **** 0.06
12648 H 104.43643030866639 36.521846618840016 98.15080358074373 H 0.0 **** 0.06
12649 H 104.60101015769874 35.995123717597295 96.45798775171356 H 0.0 **** 0.06
12650 H 103.09955595076772 36.77997661645895 97.00326845999275 H 0.0 **** 0.06
12651 C 31.276520758639265 4.667129146345388 8.395600839222865 C 0.0 **** -0.24
12652 H 30.85488961570732 3.6632228559783613 8.343870241295718 H 0.0 **** 0.06
12653 H 31.029527680478893 5.212510777958158 7.484866524269393 H 0.0 **** 0.06
12654 H 32.360532129850995 4.600287283987072 8.496898906342096 H 0.0 **** 0.06
12655 H 30.863557201754645 5.190946714698242 9.25762053644408 H 0.0 **** 0.06
12656 C 7.213844579206523 91.9410263212042 53.8137027582452 C 0.0 **** -0.24
12657 H 7.579424980832584 92.05944635526797 52.794003124456935 H 0.0 **** 0.06
12658 H 8.037341466947737 91.6458104474186 54.46405126322543 H 0.0 **** 0.06
12659 H 6.440707922967476 91.17355291524011 53.83554192335902 H 0.0 **** 0.06
12660 H 6.796164003253466 92.88611525514902 54.16235530966736 H 0.0 **** 0.06
12661 C 50.00949385004856 6.649880533125298 26.63734322497629 C 0.0 **** -0.24
12662 H 49.69275989028341 5.682909983447942 26.245798479495164 H 0.0 **** 0.06
12663 H 49.827153094264816 7.422178384696252 25.88874541836742 H 0.0 **** 0.06
12664 H 51.072520974043925 6.615133235126649 26.87421794135318 H 0.0 **** 0.06
12665 H 49.44298941616984 6.8777320514572295 27.540776765547832 H 0.0 **** 0.06
12666 C 34.23659845103868 81.88535189670588 61.13921282988599 C 0.0 **** -0.24
12667 H 34.54606497550798 82.70553657366176 61.78833019411039 H 0.0 **** 0.06
12668 H 34.11643233014163 82.25391004856243 60.12060412817124 H 0.0 **** 0.06
12669 H 33.2895177887839 81.4805059321134 61.493786660720076 H 0.0 **** 0.06
12670 H 34.99559219274285 81.10342310332257 61.156287792594696 H 0.0 **** 0.06
12671 C 81.11985463776999 30.79596759791231 69.05049529988037 C 0.0 **** -0.24
12672 H 81.63265773320684 30.99752156758757 68.11061837322242 H 0.0 **** 0.06
12673 H 81.79972694501969 30.284979347775447 69.73274114501305 H 0.0 **** 0.06
12674 H 80.25032418457623 30.166487528725654 68.86323796866023 H 0.0 **** 0.06
12675 H 80.79768424149125 31.737239160250184 69.49660607212803 H 0.0 **** 0.06
12676 C 45.35096972325891 84.22641252498437 9.039962278266842 C 0.0 **** -0.24
12677 H 44.51339702666439 83.75729666158611 8.523513828022146 H 0.0 **** 0.06
12678 H 46.27991424065249 83.73805950464981 8.743283697629352 H 0.0 **** 0.06
12679 H 45.21600300402616 84.12715386395422 10.116463720856473 H 0.0 **** 0.06
12680 H 45.39561892877191 85.28308956090319 8.77488902294374 H 0.0 **** 0.06
12681 C 71.97055773364474 88.08020282039524 24.333961354070823 C 0.0 **** -0.24
12682 H 71.26563801584464 88.78622614383471 24.772692427258733 H 0.0 **** 0.06
12683 H 72.158067756328 87.26899359046354 25.03818527602266 H 0.0 **** 0.06
12684 H 72.90712934289462 88.59191979394757 24.11102617187396 H 0.0 **** 0.06
12685 H 71.5502584576735 87.67283756161282 23.414044615446755 H 0.0 **** 0.06
12686 C 9.409641561202221 52.02134752529528 38.184160794875424 C 0.0 **** -0.24
12687 H 9.238440724898709 52.943211269764134 37.62866894106665 H 0.0 **** 0.06
12688 H 10.184952497969817 52.1882739803994 38.93256193196528 H 0.0 **** 0.06
12689 H 9.727894411632406 51.23744383874191 37.49804216874708 H 0.0 **** 0.06
12690 H 8.48626186108072 51.71882746367865 38.678908495028 H 0.0 **** 0.06
12691 C 88.4000874981499 77.41543205290029 101.2251095001436 C 0.0 **** -0.24
12692 H 87.68358730162828 77.46264023186221 100.4048220014336 H 0.0 **** 0.06
12693 H 88.55085298636445 78.41527366731219 101.63285727405997 H 0.0 **** 0.06
12694 H 89.3484964212711 77.02594067049712 100.85629837842237 H 0.0 **** 0.06
12695 H 88.01593124838425 76.75876195795988 102.00545304768386 H 0.0 **** 0.06
12696 C 59.64626783824394 60.98864633370022 70.2040691790844 C 0.0 **** -0.24
12697 H 58.87746476048892 60.84122391908164 70.96220184652401 H 0.0 **** 0.06
12698 H 60.627735130748704 60.80653689144509 70.64271122724588 H 0.0 **** 0.06
12699 H 59.59759351051969 62.01241341232554 69.83292972970213 H 0.0 **** 0.06
12700 H 59.48197210191728 60.29543000397547 69.38040077470171 H 0.0 **** 0.06
12701 C 83.45417663142871 38.21155128252292 87.60182914006819 C 0.0 **** -0.24
12702 H 83.71053600690661 39.26252980446557 87.46428360367193 H 0.0 **** 0.06
12703 H 84.33353038698789 37.595319607441326 87.4159604307165 H 0.0 **** 0.06
12704 H 82.66303653685281 37.937487823560616 86.90298556813343 H 0.0 **** 0.06
12705 H 83.1077377918356 38.05281320549341 88.62322968726929 H 0.0 **** 0.06
12706 C 70.23579674561569 106.3674700987781 67.84791350530098 C 0.0 **** -0.24
12707 H 69.28669252156675 106.88645249322643 67.7079519806247 H 0.0 **** 0.06
12708 H 70.97252496893503 107.06234886446715 68.25152563694219 H 0.0 **** 0.06
12709 H 70.58497771601861 105.98429274844636 66.88944157353936 H 0.0 **** 0.06
12710 H 70.09682247738237 105.53962655334524 68.54321194714265 H 0.0 **** 0.06
12711 C 16.290783918920113 85.56938770783286 16.99451819824705 C 0.0 **** -0.24
12712 H 15.354298472791982 86.102397877745 17.155954972674955 H 0.0 **** 0.06
12713 H 16.64052878513712 85.15506365318136 17.940434602104652 H 0.0 **** 0.06
12714 H 17.03823082076707 86.25815385071701 16.600045051614995 H 0.0 **** 0.06
12715 H 16.13014936006573 84.76032359063488 16.281008167707324 H 0.0 **** 0.06
12716 C 103.53712734557291 69.17259627314965 57.627078015448745 C 0.0 **** -0.24
12717 H 103.76818816852202 68.58784255714684 56.736152799894995 H 0.0 **** 0.06
12718 H 103.8931367948231 70.19454277259538 57.49233609372658 H 0.0 **** 0.06
12719 H 104.02999301134426 68.72634492549682 58.49063337722728 H 0.0 **** 0.06
12720 H 102.45906338431675 69.18005636869378 57.787474852015436 H 0.0 **** 0.06
12721 C 63.41323905180997 93.09962458655923 73.63912694404348 C 0.0 **** -0.24
12722 H 62.4237994599755 92.75358003994054 73.93874535442478 H 0.0 **** 0.06
12723 H 63.551335467305535 92.92548228988989 72.5716886175448 H 0.0 **** 0.06
12724 H 64.17341760113203 92.55294975207534 74.1977197614064 H 0.0 **** 0.06
12725 H 63.50484909896727 94.16515205949938 73.84850097972696 H 0.0 **** 0.06
12726 C 50.44474336659357 34.42792055475667 85.6216961612251 C 0.0 **** -0.24
12727 H 49.575715422580515 34.42574888594663 84.96334560993425 H 0.0 **** 0.06
12728 H 50.18666104236786 34.91420276464066 86.56217678809296 H 0.0 **** 0.06
12729 H 51.26022368836283 34.96994563081722 85.14364978970902 H 0.0 **** 0.06
12730 H 50.75572022497187 33.40160005837072 85.81601889707702 H 0.0 **** 0.06
12731 C 71.58398747672507 39.97025088225036 22.7312302426825 C 0.0 **** -0.24
12732 H 70.81960610696783 40.70811023684274 22.977448557603225 H 0.0 **** 0.06
12733 H 71.57701183292497 39.17752394874348 23.479674683517146 H 0.0 **** 0.06
12734 H 72.56195854534283 40.451589586487025 22.718527644719245 H 0.0 **** 0.06
12735 H 71.37557857970768 39.546181080612804 21.74915782918049 H 0.0 **** 0.06
12736 C 44.52215052706134 10.813620309965785 41.81932492613333 C 0.0 **** -0.24
12737 H 44.09287718105094 10.484151462134065 40.87342569546769 H 0.0 **** 0.06
12738 H 44.41153825703827 11.89405238562344 41.91057816365111 H 0.0 **** 0.06
12739 H 45.58001566652584 10.552235796919462 41.84926151340568 H 0.0 **** 0.06
12740 H 44.004171003630404 10.32404159518606 42.64403433200883 H 0.0 **** 0.06
12741 C 83.13849776961337 93.74871067159287 27.466246183293606 C 0.0 **** -0.24
12742 H 82.65074600554016 94.41812659603782 26.758119630656154 H 0.0 **** 0.06
12743 H 84.11321357682127 94.15579397263225 27.73765371911091 H 0.0 **** 0.06
12744 H 83.26812579522777 92.76856185351468 27.009119832033775 H 0.0 **** 0.06
12745 H 82.52178152889235 93.65454957462342 28.360529422785902 H 0.0 **** 0.06
12746 C 59.35248239135757 81.87798412941828 19.94714005335119 C 0.0 **** -0.24
12747 H 58.60417033871454 81.45990814659373 19.27405890100627 H 0.0 **** 0.06
12748 H 59.59947976220468 82.89187141780548 19.630832268081477 H 0.0 **** 0.06
12749 H 60.24915223178914 81.25995420451392 19.922043288228394 H 0.0 **** 0.06
12750 H 58.95543338079952 81.90039678026056 20.961320214625715 H 0.0 **** 0.06
12751 C 9.317681372765136 101.928705066364 76.91080941223674 C 0.0 **** -0.24
12752 H 9.802039721966992 101.67341884431964 75.96831981561627 H 0.0 **** 0.06
12753 H 8.235005247502642 101.92316824682072 76.77613364440498 H 0.0 **** 0.06
12754 H 9.640166575658526 102.92057848081008 77.22679376362996 H 0.0 **** 0.06
12755 H 9.592718597517276 101.19668887421439 77.67013709201865 H 0.0 **** 0.06
12756 C 40.148012830689055 105.9823821651772 75.68910005073401 C 0.0 **** -0.24
12757 H 39.95157741971904 104.9109546645621 75.6521685121582 H 0.0 **** 0.06
12758 H 41.09968146416593 106.19431383521263 75.20042270726665 H 0.0 **** 0.06
12759 H 40.19247591806862 106.30760463842529 76.72863941853252 H 0.0 **** 0.06
12760 H 39.34895155691846 106.51643958918189 75.17442784537033 H 0.0 **** 0.06
12761 C 15.789998839974885 35.50790364409738 54.178774129689046 C 0.0 **** -0.24
12762 H 15.998899843185228 35.31195390662728 55.230823469141896 H 0.0 **** 0.06
12763 H 16.67553342820213 35.932884466595254 53.70571227088763 H 0.0 **** 0.06
12764 H 14.961213864914555 36.2109099520236 54.097445871168325 H 0.0 **** 0.06
12765 H 15.524797953025328 34.575028130382776 53.68142368430706 H 0.0 **** 0.06
12766 C 104.66970615659162 93.51410084724655 36.33365255602439 C 0.0 **** -0.24
12767 H 105.04288432907339 93.02433572900435 37.23291718575058 H 0.0 **** 0.06
12768 H 103.85574541174032 92.92332240335428 35.91063417161945 H 0.0 **** 0.06
12769 H 105.47540651316802 93.59878495972097 35.60459272838773 H 0.0 **** 0.06
12770 H 104.30271490942391 94.50880152147069 36.58706469253633 H 0.0 **** 0.06
12771 C 71.06445569767452 36.68970958196161 43.34877123360212 C 0.0 **** -0.24
12772 H 71.22817110411856 37.71602194105492 43.019197351397565 H 0.0 **** 0.06
12773 H 71.39902174819169 36.00103827727108 42.57162826499143 H 0.0 **** 0.06
12774 H 70.00251682761295 36.534832896718854 43.53871528069675 H 0.0 **** 0.06
12775 H 71.62770584631573 36.50794498094933 44.26334520226743 H 0.0 **** 0.06
12776 C 96.39463413527437 93.33541546462772 78.4827451807721 C 0.0 **** -0.24
12777 H 95.35542514617151 93.63912183863962 78.60712686115329 H 0.0 **** 0.06
12778 H 96.76657843236234 92.92186809703193 79.42109575655843 H 0.0 **** 0.06
12779 H 96.99464575446711 94.20037639630189 78.20247158705632 H 0.0 **** 0.06
12780 H 96.4601588817074 92.57877995457201 77.70113280774945 H 0.0 **** 0.06
12781 C 58.65477504858535 87.97039202356535 56.35914775860157 C 0.0 **** -0.24
12782 H 58.54206883697776 88.39289266066001 57.357233524322716 H 0.0 **** 0.06
12783 H 59.66060908025753 88.17352134511 55.99047429508655 H 0.0 **** 0.06
12784 H 57.923832488831465 88.42335545095833 55.68856378725249 H 0.0 **** 0.06
12785 H 58.49301007262687 86.89305954355657 56.39983613781169 H 0.0 **** 0.06
12786 C 105.73510076699868 2.966111092853822 22.427080367952385 C 0.0 **** -0.24
12787 H 106.1250605507656 3.151158082816295 21.42657417109075 H 0.0 **** 0.06
12788 H 104.65784103196046 3.1319226193257066 22.433538277541174 H 0.0 **** 0.06
12789 H 106.21143852919899 3.645401816889432 23.1335052557273 H 0.0 **** 0.06
12790 H 105.94744607703409 1.9362558876942444 22.714728500630827 H 0.0 **** 0.06
12791 C 25.38081338835582 97.56396847609192 58.56506108336467 C 0.0 **** -0.24
12792 H 24.910595305452176 96.9102881106164 57.83041991824476 H 0.0 **** 0.06
12793 H 25.311771638430088 98.59846453080328 58.227697944856516 H 0.0 **** 0.06
12794 H 26.42906663879566 97.2875085318715 58.679864154798224 H 0.0 **** 0.06
12795 H 24.87080224753916 97.4589874489536 59.52301951687855 H 0.0 **** 0.06
12796 C 4.338828027338773 49.14268916333143 100.87838245140932 C 0.0 **** -0.24
12797 H 3.645555079106604 48.63348682593506 101.54728997232405 H 0.0 **** 0.06
12798 H 3.989168611028621 50.15907230771 100.69794051528095 H 0.0 **** 0.06
12799 H 4.392844987541093 48.60352125018981 99.93302865499436 H 0.0 **** 0.06
12800 H 5.327503162220056 49.17378401427871 101.3363412905731 H 0.0 **** 0.06
12801 C 90.59354568529176 62.904783098525286 40.73998626841028 C 0.0 **** -0.24
12802 H 91.29102094113887 62.19749637347741 41.186719276109045 H 0.0 **** 0.06
12803 H 89.78410260374919 63.10866003531464 41.44138902613119 H 0.0 **** 0.06
12804 H 90.18197205508983 62.48010638400979 39.823584277831856 H 0.0 **** 0.06
12805 H 91.1158814553599 63.83324532126488 40.507615902425044 H 0.0 **** 0.06
12806 C 57.43857937530622 57.82353222947649 45.94014554037927 C 0.0 **** -0.24
12807 H 58.34380651747398 57.59105536699909 45.37791951395628 H 0.0 **** 0.06
12808 H 56.819757606358 58.510722766708255 45.36330112226168 H 0.0 **** 0.06
12809 H 57.70934355237552 58.286259687677365 46.88926185252611 H 0.0 **** 0.06
12810 H 56.88384602733219 56.90494978731816 46.12843750790057 H 0.0 **** 0.06
12811 C 47.23738113265301 22.07918897062305 42.32082696711262 C 0.0 **** -0.24
12812 H 46.9378528554262 21.09157002874376 42.671847414150676 H 0.0 **** 0.06
12813 H 48.12252224065833 21.987564563132807 41.690637364000764 H 0.0 **** 0.06
12814 H 47.46453642868897 22.714508691300693 43.176888314127666 H 0.0 **** 0.06
12815 H 46.42511039646695 22.52072136357316 41.74374803978455 H 0.0 **** 0.06
12816 C 34.831525945352524 82.65867446410569 97.12254700120289 C 0.0 **** -0.24
12817 H 34.546645816094795 83.15038667497848 98.05200225136966 H 0.0 **** 0.06
12818 H 35.68761247673215 82.00749911983141 97.30358926742014 H 0.0 **** 0.06
12819 H 35.097303401427666 83.41076914745719 96.38019964021441 H 0.0 **** 0.06
12820 H 33.993986370801295 82.0649087120713 96.75503312959734 H 0.0 **** 0.06
12821 C 4.612576459462895 102.0644209014479 50.3228452010822 C 0.0 **** -0.24
12822 H 3.9986256374596447 101.2135452932637 50.61468540122482 H 0.0 **** 0.06
12823 H 5.615842960447381 101.71994655491416 50.0723527801305 H 0.0 **** 0.06
12824 H 4.667923376175786 102.77307017115568 51.148935764417274 H 0.0 **** 0.06
12825 H 4.168404816386677 102.55222746769601 49.45467468077064 H 0.0 **** 0.06
12826 C 32.4950104540214 36.322110860891655 40.21133101926455 C 0.0 **** -0.24
12827 H 32.099480339075726 35.796113532348386 41.08112899453633 H 0.0 **** 0.06
12828 H 32.59616586141179 35.62319986104856 39.380382311487836 H 0.0 **** 0.06
12829 H 33.47009848475359 36.74224682155625 40.45362158460921 H 0.0 **** 0.06
12830 H 31.812898285653148 37.12387686137376 39.930265312515075 H 0.0 **** 0.06
12831 C 85.18851315519397 30.271896248377693 26.41039854591522 C 0.0 **** -0.24
12832 H 84.10550725654277 30.162240078215603 26.361793838045823 H 0.0 **** 0.06
12833 H 85.66214522943274 29.38603504279383 25.984287753791566 H 0.0 **** 0.06
12834 H 85.4966762456238 30.38464139407469 27.45022823716764 H 0.0 **** 0.06
12835 H 85.4910039260313 31.152721965780856 25.844527472592183 H 0.0 **** 0.06
12836 C 75.92912966312502 25.031869227429013 12.637208819303435 C 0.0 **** -0.24
12837 H 76.89866145656475 24.542442337344312 12.538770109781236 H 0.0 **** 0.06
12838 H 76.07306713572166 26.108893790893234 12.715718334032662 H 0.0 **** 0.06
12839 H 75.42678024331121 24.66605420845201 13.532366967944796 H 0.0 **** 0.06
12840 H 75.31979552330591 24.808451616187796 11.761607783388909 H 0.0 **** 0.06
12841 C 80.7516775279291 39.1407334119512 60.805162270973824 C 0.0 **** -0.24
12842 H 81.23039731772369 39.937651789645884 61.375273859684796 H 0.0 **** 0.06
12843 H 81.01636096711671 39.23732373578849 59.752627875908956 H 0.0 **** 0.06
12844 H 79.67014773193064 39.21425298707584 60.916821823346595 H 0.0 **** 0.06
12845 H 81.08986713054617 38.17496704679763 61.17899213748376 H 0.0 **** 0.06
12846 C 54.14611960246023 69.80098702134947 81.57313617000773 C 0.0 **** -0.24
12847 H 53.685080813546506 70.05106542313447 80.61741981398114 H 0.0 **** 0.06
12848 H 53.3705580331457 69.66699973023341 82.32657715650043 H 0.0 **** 0.06
12849 H 54.81260004060144 70.6090967851708 81.87627176626069 H 0.0 **** 0.06
12850 H 54.71782677702686 68.87848509840339 81.4703799999088 H 0.0 **** 0.06
12851 C 23.136329198468275 43.76202450488455 96.44554766061756 C 0.0 **** -0.24
12852 H 23.223249813963676 43.54423384928231 97.50937127382676 H 0.0 **** 0.06
12853 H 23.893005892316197 44.494445789963265 96.16161946705492 H 0.0 **** 0.06
12854 H 22.145517204258 44.16360625269124 96.23603312031881 H 0.0 **** 0.06
12855 H 23.28590502800853 42.84585964622704 95.87451638592913 H 0.0 **** 0.06
12856 C 20.562529377891135 11.352424168237434 37.78145685664197 C 0.0 **** -0.24
12857 H 21.647020370316305 11.25673595847232 37.82380911297264 H 0.0 **** 0.06
12858 H 20.18800646415876 10.854279350037302 36.886484178945494 H 0.0 **** 0.06
12859 H 20.29170446840027 12.407090253304517 37.749677004196286 H 0.0 **** 0.06
12860 H 20.12266126192685 10.890406086264704 38.66559206377576 H 0.0 **** 0.06
12861 C 46.05664470908022 1.356557519745861 20.791429819947393 C 0.0 **** -0.24
12862 H 45.37691709076316 1.3628959774267715 21.643376347611532 H 0.0 **** 0.06
12863 H 46.6051012187763 0.4140243477402077 20.771873469904413 H 0.0 **** 0.06
12864 H 46.7605414956746 2.18402559945854 20.882800589327815 H 0.0 **** 0.06
12865 H 45.48500869094238 1.4648285246064114 19.869621615934157 H 0.0 **** 0.06
12866 C 4.002512184590948 68.6322626005512 82.24704255619542 C 0.0 **** -0.24
12867 H 3.605807109028179 69.64598800896454 82.21159538030832 H 0.0 **** 0.06
12868 H 3.5079516755933495 68.0751844253503 83.04306173848659 H 0.0 **** 0.06
12869 H 5.074616994308883 68.6686873868137 82.44033047325559 H 0.0 **** 0.06
12870 H 3.822129184368813 68.1381069622185 81.29128056564014 H 0.0 **** 0.06
12871 C 33.20133328316308 73.28039081326332 21.099810882332804 C 0.0 **** -0.24
12872 H 32.50706069639713 73.46067364739818 21.920191499107688 H 0.0 **** 0.06
12873 H 34.06143662909898 72.72150973337355 21.467961476213986 H 0.0 **** 0.06
12874 H 33.53496981272181 74.23360234744533 20.689714375866487 H 0.0 **** 0.06
12875 H 32.70064295267446 72.70605801433555 20.319818719095167 H 0.0 **** 0.06
12876 C 24.01611428152591 94.2257351050724 27.405792447651237 C 0.0 **** -0.24
12877 H 23.650842590727276 95.25200881866033 27.444452070237162 H 0.0 **** 0.06
12878 H 24.54521955484959 93.99479139425424 28.330464459123874 H 0.0 **** 0.06
12879 H 24.69459115484931 94.11331330533153 26.560872261273232 H 0.0 **** 0.06
12880 H 23.173669465411475 93.5439249675085 27.28826207411589 H 0.0 **** 0.06
12881 C 38.3718830973971 58.76826427170916 85.5493755587371 C 0.0 **** -0.24
12882 H 37.62188217760075 59.550525289282845 85.43559509172042 H 0.0 **** 0.06
12883 H 38.56496278767355 58.30774888625778 84.58008790499316 H 0.0 **** 0.06
12884 H 38.00606752477262 58.0124276070798 86.24410543049363 H 0.0 **** 0.06
12885 H 39.29323645045008 59.201589024828806 85.9361329488758 H 0.0 **** 0.06
12886 C 48.13400994806986 54.158253197348245 25.572021911222375 C 0.0 **** -0.24
12887 H 48.202980460328604 53.56435206480435 24.659585442984262 H 0.0 **** 0.06
12888 H 48.40079407940263 53.53929790533061 26.428788093673607 H 0.0 **** 0.06
12889 H 47.1139840001282 54.52359810530976 25.68969882512608 H 0.0 **** 0.06
12890 H 48.818501572302836 55.004011695664246 25.506872197890267 H 0.0 **** 0.06
12891 C 105.49727764494392 91.66529093759036 69.83870976134807 C 0.0 **** -0.24
12892 H 106.36571606285233 91.00746838825947 69.83472714312467 H 0.0 **** 0.06
12893 H 105.82187495482808 92.69641529902779 69.69411754606523 H 0.0 **** 0.06
12894 H 104.97994080396228 91.57796968738663 70.79358841923658 H 0.0 **** 0.06
12895 H 104.82127065599433 91.38022329452517 69.0321381715533 H 0.0 **** 0.06
12896 C 78.09326363902844 8.752742636946016 33.75857462237312 C 0.0 **** -0.24
12897 H 78.97579306825898 8.854228863161504 34.38904586905534 H 0.0 **** 0.06
12898 H 77.584540570265 9.714722360706478 33.68676504370745 H 0.0 **** 0.06
12899 H 77.41751734743923 8.016643903051431 34.194893708584175 H 0.0 **** 0.06
12900 H 78.39299096988847 8.425076604319024 32.76347001746163 H 0.0 **** 0.06
12901 C 3.64241295183632 53.87507750576782 8.916632126233523 C 0.0 **** -0.24
12902 H 4.10153712789355 53.44876930119955 9.808864739647817 H 0.0 **** 0.06
12903 H 3.9890228046052414 54.90077453407238 8.7857009223668 H 0.0 **** 0.06
12904 H 2.5587686290887746 53.869272881719695 9.027275356432241 H 0.0 **** 0.06
12905 H 3.9228435866012887 53.28258970149477 8.046543909298421 H 0.0 **** 0.06
12906 C 6.983754546897444 95.4968194125269 97.24095164156682 C 0.0 **** -0.24
12907 H 6.617350491224869 94.65369606975437 97.82704107798668 H 0.0 **** 0.06
12908 H 8.054317422389886 95.38239092556688 97.06973547062205 H 0.0 **** 0.06
12909 H 6.799085513635674 96.42401647496662 97.78428644129968 H 0.0 **** 0.06
12910 H 6.462699193497457 95.5262926136186 96.28407476820715 H 0.0 **** 0.06
12911 C 1.042046560666563 63.61261434935747 67.91952065922476 C 0.0 **** -0.24
12912 H 0.12210554117837091 63.12264856770241 68.23773558417412 H 0.0 **** 0.06
12913 H 1.545942905720267 64.037668140188 68.78853247278386 H 0.0 **** 0.06
12914 H 0.8043079027031013 64.40666971270136 67.21169150185119 H 0.0 **** 0.06
12915 H 1.6950569147366537 62.88263254819523 67.44095951936833 H 0.0 **** 0.06
12916 C 64.09892498947556 43.226640014710114 82.75869853130342 C 0.0 **** -0.24
12917 H 63.28077754231279 42.9967077436917 82.07487860406117 H 0.0 **** 0.06
12918 H 64.96262535843246 43.568749169754 82.188687392806 H 0.0 **** 0.06
12919 H 64.36409108507672 42.33111189266148 83.32085246107695 H 0.0 **** 0.06
12920 H 63.784673047600975 44.009717352142644 83.4491739735635 H 0.0 **** 0.06
12921 C 31.394483435999376 54.68602569106014 21.47039437600123 C 0.0 **** -0.24
12922 H 30.720034609316144 54.72658571670377 20.614839357250098 H 0.0 **** 0.06
12923 H 30.96313032524332 54.04721141816913 22.241943199665577 H 0.0 **** 0.06
12924 H 31.536899374883617 55.6910276083745 21.867150644395426 H 0.0 **** 0.06
12925 H 32.35518955039448 54.27969271089003 21.156361077222932 H 0.0 **** 0.06
12926 C 66.70415506724737 5.902158931904593 23.985936246045412 C 0.0 **** -0.24
12927 H 65.84833805018616 5.786862849080883 23.321544261442085 H 0.0 **** 0.06
12928 H 67.55827048118505 5.364365273773975 23.575242301501817 H 0.0 **** 0.06
12929 H 66.4580376430406 5.499025463407971 24.968356896129677 H 0.0 **** 0.06
12930 H 66.95134201970518 6.959559782249247 24.079063840344247 H 0.0 **** 0.06
12931 C 25.942681618716165 1.2081247129429755 61.996938417421234 C 0.0 **** -0.24
12932 H 25.87848504691732 0.9769671416979406 63.05981688938377 H 0.0 **** 0.06
12933 H 26.286546843334236 2.234984605335626 61.86778643685386 H 0.0 **** 0.06
12934 H 24.959735640948452 1.0938715222351618 61.54000612829748 H 0.0 **** 0.06
12935 H 26.646094105874795 0.52581704175563 61.51902853999155 H 0.0 **** 0.06
12936 C 5.337916296723435 46.31232341325881 28.038222719754344 C 0.0 **** -0.24
12937 H 4.92485117402282 47.14227481852302 27.46486630343702 H 0.0 **** 0.06
12938 H 5.690912820113226 45.53925272786276 27.354863422751578 H 0.0 **** 0.06
12939 H 4.565639439044702 45.89965557601758 28.686897052544765 H 0.0 **** 0.06
12940 H 6.1701131682314525 46.66839481260189 28.64488671209898 H 0.0 **** 0.06
12941 C 21.747807079611363 102.05082182441976 11.8137956459428 C 0.0 **** -0.24
12942 H 21.152190501067736 101.85389225901324 12.704564019053468 H 0.0 **** 0.06
12943 H 22.770520370517374 101.71122700511846 11.978745965014241 H 0.0 **** 0.06
12944 H 21.74819199200485 103.12083641781108 11.60694228867316 H 0.0 **** 0.06
12945 H 21.319631995609043 101.51663002518727 10.9647662042873 H 0.0 **** 0.06
12946 C 94.14554183958433 0.3774547219048827 16.240843746891954 C 0.0 **** -0.24
12947 H 94.58974531744798 1.2226307333772155 15.715501510718 H 0.0 **** 0.06
12948 H 94.32718909762778 0.4794941102563257 17.31088484780456 H 0.0 **** 0.06
12949 H 94.59326362460087 -0.5496409973459748 15.882415995458118 H 0.0 **** 0.06
12950 H 93.07165851871048 0.35804153223109836 16.055208495245765 H 0.0 **** 0.06
12951 C 85.97286774825406 72.07723487906752 19.66157419083328 C 0.0 **** -0.24
12952 H 85.28361247417143 71.23296772193379 19.706395203025323 H 0.0 **** 0.06
12953 H 86.86783393615083 71.7860134703306 19.110611054476625 H 0.0 **** 0.06
12954 H 86.24899600125957 72.37337093635526 20.67287694722234 H 0.0 **** 0.06
12955 H 85.48984756370538 72.91365387243658 19.15640147163699 H 0.0 **** 0.06
12956 C 74.89110169742499 85.70675541307932 7.8335989793481104 C 0.0 **** -0.24
12957 H 75.52971475334304 85.03827870616463 8.41052266404931 H 0.0 **** 0.06
12958 H 75.19514172770135 86.73937397172165 8.007783722351832 H 0.0 **** 0.06
12959 H 73.85446589872083 85.57620562348725 8.142952573489069 H 0.0 **** 0.06
12960 H 74.9850844099349 85.47316335094362 6.773136957502075 H 0.0 **** 0.06
12961 C 106.1736599702468 95.71188310534407 21.36844533006638 C 0.0 **** -0.24
12962 H 106.69868377900333 95.02286283162647 22.030004675811966 H 0.0 **** 0.06
12963 H 106.75373067096419 96.62913385540077 21.264302267889576 H 0.0 **** 0.06
12964 H 105.19581760849401 95.94630791501842 21.791227913780773 H 0.0 **** 0.06
12965 H 106.04543069200092 95.2493425510599 20.38967201205 H 0.0 **** 0.06
12966 C 23.78362262910204 0.9721810919414793 13.279212524704548 C 0.0 **** -0.24
12967 H 22.76903262205741 1.3224212518776 13.467891179825273 H 0.0 **** 0.06
12968 H 23.76188478034115 -0.08871732939287824 13.03113454095751 H 0.0 **** 0.06
12969 H 24.391962413965956 1.1255160235363633 14.170793048658481 H 0.0 **** 0.06
12970 H 24.21187935414082 1.532492358143088 12.447053135054759 H 0.0 **** 0.06
12971 C 34.03653819225798 20.63245330125963 81.73746323255605 C 0.0 **** -0.24
12972 H 33.57645874308869 21.598694024409156 81.53096029054292 H 0.0 **** 0.06
12973 H 33.408576666837206 20.07147245389646 82.42991289719275 H 0.0 **** 0.06
12974 H 35.02038039950878 20.78521388780024 82.18105586047736 H 0.0 **** 0.06
12975 H 34.14071155570451 20.073973289263293 80.80703606739615 H 0.0 **** 0.06
12976 C 73.17534423516258 40.55758496432938 83.48791995960157 C 0.0 **** -0.24
12977 H 73.57985737949934 40.69643772323792 84.49082063421393 H 0.0 **** 0.06
12978 H 73.2212594689424 41.501464440885 82.94398791600135 H 0.0 **** 0.06
12979 H 72.13840048201035 40.22819516059121 83.55790383178564 H 0.0 **** 0.06
12980 H 73.7611327552587 39.804458661511205 82.96081817366735 H 0.0 **** 0.06
12981 C 45.946274490719674 54.89516203317362 30.107359682282492 C 0.0 **** -0.24
12982 H 46.67823018701688 54.097675242614656 29.977704733923304 H 0.0 **** 0.06
12983 H 44.95566248144377 54.46035530322512 30.24306411608194 H 0.0 **** 0.06
12984 H 45.946540460686265 55.534598491404665 29.224915560163566 H 0.0 **** 0.06
12985 H 46.207383283989515 55.486951299924456 30.984966878812514 H 0.0 **** 0.06
12986 C 70.18817679218222 77.09226656742503 15.322396171128265 C 0.0 **** -0.24
12987 H 69.39642727348877 77.40683737704884 14.641513160994414 H 0.0 **** 0.06
12988 H 70.78065548190943 76.30805125900451 14.852530233344392 H 0.0 **** 0.06
12989 H 69.74463702185847 76.71259851260585 16.24269684751178 H 0.0 **** 0.06
12990 H 70.82833142895458 77.94406620532003 15.551972135625878 H 0.0 **** 0.06
12991 C 59.12592607472419 82.47039332630318 87.64457645589746 C 0.0 **** -0.24
12992 H 59.12303326374277 83.3720129446412 88.25787854059544 H 0.0 **** 0.06
12993 H 58.81348237189866 82.72025427214325 86.6307716738865 H 0.0 **** 0.06
12994 H 58.43554824788501 81.74170422424524 88.0691389895448 H 0.0 **** 0.06
12995 H 60.130754816883865 82.04983063711741 87.6228076440191 H 0.0 **** 0.06
12996 C 19.402059630503487 24.49293270511683 60.28821016933685 C 0.0 **** -0.24
12997 H 19.891905699757785 24.74467220529175 61.22919199192086 H 0.0 **** 0.06
12998 H 18.55798590790809 23.83236848661994 60.48477095104511 H 0.0 **** 0.06
12999 H 20.112109465853052 23.991198854383953 59.63165854961312 H 0.0 **** 0.06
13000 H 19.04652138878268 25.40627029653075 59.80970857371207 H 0.0 **** 0.06
13001 C 103.21016331938601 2.0538407066454862 47.90224922320155 C 0.0 **** -0.24
13002 H 102.64029879773827 1.6827363398594635 47.05126883831551 H 0.0 **** 0.06
13003 H 104.20553537693691 2.3508621277952173 47.57146611660491 H 0.0 **** 0.06
13004 H 103.29611900960626 1.2670944345716642 48.65222899850207 H 0.0 **** 0.06
13005 H 102.69859964549195 2.913743193377364 48.334395052608556 H 0.0 **** 0.06
13006 C 24.109810199601426 29.20170165663751 37.11469624721318 C 0.0 **** -0.24
13007 H 23.693090170706647 29.770076377005353 36.2830675369901 H 0.0 **** 0.06
13008 H 24.524071714692894 28.264318155243586 36.74257354339423 H 0.0 **** 0.06
13009 H 23.32304365708866 28.989553936862478 37.83869380483844 H 0.0 **** 0.06
13010 H 24.897535320646703 29.782586944248067 37.59362743982716 H 0.0 **** 0.06
13011 C 101.00353566625154 98.63796146167981 87.0584036243558 C 0.0 **** -0.24
13012 H 101.79321299560581 98.6209028382791 86.30657420660486 H 0.0 **** 0.06
13013 H 101.02640712743494 99.59058379979446 87.58742373169426 H 0.0 **** 0.06
13014 H 101.15819738254004 97.82359491486243 87.76669072686222 H 0.0 **** 0.06
13015 H 100.03565070253137 98.51558042353612 86.57089019098092 H 0.0 **** 0.06
13016 C 105.2613211725822 33.94362526577012 0.6264247441978483 C 0.0 **** -0.24
13017 H 104.9827935008816 34.785504644465135 1.2605053137169193 H 0.0 **** 0.06
13018 H 106.01948824188219 33.34425355940674 1.1328682973722124 H 0.0 **** 0.06
13019 H 105.66151300861327 34.31539181481921 -0.31653167490169665 H 0.0 **** 0.06
13020 H 104.38228887723943 33.32927234358275 0.43237216541251655 H 0.0 **** 0.06
13021 C 19.970997578168564 53.801372035973166 8.846936099861693 C 0.0 **** -0.24
13022 H 20.235766531382545 53.20446215294315 7.973913349943018 H 0.0 **** 0.06
13023 H 20.303543382597127 53.29046384246549 9.750751253053181 H 0.0 **** 0.06
13024 H 18.890266010924673 53.935485236796545 8.879945008344635 H 0.0 **** 0.06
13025 H 20.456089594117767 54.77546819185247 8.780889581677002 H 0.0 **** 0.06
13026 C 87.40841202061002 19.57398626781547 6.734708242814122 C 0.0 **** -0.24
13027 H 86.90846339361329 20.456360721578974 7.132052329601606 H 0.0 **** 0.06
13028 H 87.00277357727721 18.681182832377402 7.212101427348344 H 0.0 **** 0.06
13029 H 88.47779666143639 19.640205058676216 6.935250689198966 H 0.0 **** 0.06
13030 H 87.24371977075062 19.51663934704544 5.658096165323698 H 0.0 **** 0.06
13031 C 2.3554708115413234 5.978091983824635 55.56895056098904 C 0.0 **** -0.24
13032 H 2.487705293420703 4.952741622725826 55.225294727321455 H 0.0 **** 0.06
13033 H 1.6126923484124234 6.000673238840063 56.3673295559791 H 0.0 **** 0.06
13034 H 2.015636903602143 6.597948643354522 54.73829153488282 H 0.0 **** 0.06
13035 H 3.3049301598260286 6.361126057208768 55.94381797754386 H 0.0 **** 0.06
13036 C 28.54627577516942 60.87205364763946 96.6125800245986 C 0.0 **** -0.24
13037 H 29.361057380746388 60.613735551941545 97.2891643991932 H 0.0 **** 0.06
13038 H 28.179611095978373 61.871343843026295 96.85111075517956 H 0.0 **** 0.06
13039 H 27.737453249458724 60.15079697835387 96.72559596859925 H 0.0 **** 0.06
13040 H 28.90878785393562 60.854514109845695 95.58439905785461 H 0.0 **** 0.06
13041 C 65.50970822742303 29.288123907007474 71.0765277699808 C 0.0 **** -0.24
13042 H 65.75325058983155 28.226434423467254 71.015804122171 H 0.0 **** 0.06
13043 H 66.43028777492043 29.868308054128818 71.14348582151516 H 0.0 **** 0.06
13044 H 64.89985171142905 29.470184003444558 71.96189995030764 H 0.0 **** 0.06
13045 H 64.95623718560891 29.58446416058024 70.18577474944394 H 0.0 **** 0.06
13046 C 47.210802605128656 105.12220978517445 71.87011816033794 C 0.0 **** -0.24
13047 H 46.744339593092 105.38044348965781 70.91881937867305 H 0.0 **** 0.06
13048 H 47.17434990956418 105.98180651566162 72.5384296989925 H 0.0 **** 0.06
13049 H 48.249326750881224 104.83699681137313 71.69974532647376 H 0.0 **** 0.06
13050 H 46.67453552991389 104.2876538408122 72.32213333706073 H 0.0 **** 0.06
13051 C 70.37449056078933 76.0651405387414 100.02273491065303 C 0.0 **** -0.24
13052 H 70.05426140837463 77.10634293859896 99.98804271784522 H 0.0 **** 0.06
13053 H 69.99572483343908 75.54006298237987 99.14565007624093 H 0.0 **** 0.06
13054 H 69.9833947160696 75.5946287034762 100.92542999246521 H 0.0 **** 0.06
13055 H 71.46347507714958 76.01953170175865 100.03269797936741 H 0.0 **** 0.06
13056 C 63.93943984644869 63.36527504463018 76.11684419702169 C 0.0 **** -0.24
13057 H 63.23347064379891 62.543541727809696 76.23647087098766 H 0.0 **** 0.06
13058 H 64.47802259473718 63.51993633719596 77.0518694493652 H 0.0 **** 0.06
13059 H 63.3962826134528 64.27374214720786 75.85410381343092 H 0.0 **** 0.06
13060 H 64.64727413542727 63.12389648709586 75.32364451536512 H 0.0 **** 0.06
13061 C 66.37773476803426 74.59959720013381 11.810525909477093 C 0.0 **** -0.24
13062 H 65.36018391041989 74.51063242878757 11.4325627625947 H 0.0 **** 0.06
13063 H 66.52538933897404 75.59655749238695 12.22680953038838 H 0.0 **** 0.06
13064 H 67.0831964647673 74.4389332900073 10.994857691398863 H 0.0 **** 0.06
13065 H 66.54409612824406 73.85279025686035 12.586455007471926 H 0.0 **** 0.06
13066 C 68.77659062656855 2.2673677995638 10.648177413092743 C 0.0 **** -0.24
13067 H 67.91477421342071 1.6481913685120446 10.397981984961708 H 0.0 **** 0.06
13068 H 69.37853457028254 1.762009139196664 11.403507689841206 H 0.0 **** 0.06
13069 H 68.43425999886685 3.226615865382527 11.038159025584957 H 0.0 **** 0.06
13070 H 69.37683643983536 2.431523775540981 9.754004372830769 H 0.0 **** 0.06
13071 C 96.71760287413682 32.10657443410415 40.085580708088315 C 0.0 **** -0.24
13072 H 97.25750656741603 31.522868029222906 39.340874402204065 H 0.0 **** 0.06
13073 H 95.84391128872889 32.56592467026391 39.624451626708435 H 0.0 **** 0.06
13074 H 97.371644930903 32.88378616436438 40.48151459672289 H 0.0 **** 0.06
13075 H 96.39840909865843 31.452008357002256 40.896878626291766 H 0.0 **** 0.06
13076 C 73.64278724541599 4.267043039321891 27.45480834225023 C 0.0 **** -0.24
13077 H 73.32371770881142 4.713815185931196 28.39680304371521 H 0.0 **** 0.06
13078 H 74.53816120524682 3.6673077182403517 27.622611172751505 H 0.0 **** 0.06
13079 H 73.86303072555053 5.05629922625792 26.735942434981553 H 0.0 **** 0.06
13080 H 72.84703117876862 3.631875549320739 27.065903160271773 H 0.0 **** 0.06
13081 C 51.230355788210716 36.868158952961466 13.807100992853606 C 0.0 **** -0.24
13082 H 52.033934065950106 36.41399288092671 13.226836513603075 H 0.0 **** 0.06
13083 H 51.530819096243484 37.86845980514974 14.121049674434545 H 0.0 **** 0.06
13084 H 51.027913149806714 36.25626725944255 14.68651572511655 H 0.0 **** 0.06
13085 H 50.332034519554746 36.933410068892556 13.194040758933767 H 0.0 **** 0.06
13086 C 48.784657951995435 55.80430405415462 71.14871751942974 C 0.0 **** -0.24
13087 H 49.66178646371589 55.57407706307926 70.5446994964656 H 0.0 **** 0.06
13088 H 49.06328144779649 55.8171727714947 72.20301733834776 H 0.0 **** 0.06
13089 H 48.02053134149659 55.044808913760065 70.98366493457513 H 0.0 **** 0.06
13090 H 48.393699462409096 56.78089092607473 70.86418417884252 H 0.0 **** 0.06
13091 C 65.71123638237168 88.11408020288019 35.914422693215954 C 0.0 **** -0.24
13092 H 64.92449357656199 87.65939963682433 36.5160488453364 H 0.0 **** 0.06
13093 H 66.54310481448522 88.40043532883192 36.55904617023842 H 0.0 **** 0.06
13094 H 65.31891961497263 88.99883750161386 35.41300890740507 H 0.0 **** 0.06
13095 H 66.05842752346695 87.39764834425058 35.169586849883785 H 0.0 **** 0.06
13096 C 95.31924648360791 62.338384028729706 21.834528863458672 C 0.0 **** -0.24
13097 H 94.78520156481642 61.52319962621897 22.323861236497294 H 0.0 **** 0.06
13098 H 95.04829395323276 62.36804953628189 20.779783239867143 H 0.0 **** 0.06
13099 H 96.39321690562582 62.176086018043236 21.93047486417298 H 0.0 **** 0.06
13100 H 95.05101198334717 63.282990071646566 22.30647518602524 H 0.0 **** 0.06
13101 C 47.19194255210297 94.8114168268504 90.0328544249212 C 0.0 **** -0.24
13102 H 46.434480747748246 95.52861581404647 89.71740092059628 H 0.0 **** 0.06
13103 H 47.35644887362583 94.08283393442673 89.23847140340831 H 0.0 **** 0.06
13104 H 46.85370051304379 94.29796370619636 90.93252930699555 H 0.0 **** 0.06
13105 H 48.12482678483439 95.33661190105613 90.24285191606094 H 0.0 **** 0.06
13106 C 71.00761046059343 15.75810686356121 12.745394680584436 C 0.0 **** -0.24
13107 H 71.87891250675455 16.35195431258296 13.020372185416281 H 0.0 **** 0.06
13108 H 71.33363809654918 14.794261940370632 12.35395928260575 H 0.0 **** 0.06
13109 H 70.43488785417837 16.28532446227672 11.982428019259853 H 0.0 **** 0.06
13110 H 70.38300338489158 15.600886739014157 13.624819235055817 H 0.0 **** 0.06
13111 C 90.8936369987233 32.82022395617138 22.33678265202485 C 0.0 **** -0.24
13112 H 91.67262062319642 32.178565969604065 21.92418444621613 H 0.0 **** 0.06
13113 H 91.20920555119855 33.86172181473902 22.274241372616757 H 0.0 **** 0.06
13114 H 90.71897696094753 32.554469732599024 23.37919200291995 H 0.0 **** 0.06
13115 H 89.97297379518956 32.68349558762845 21.768320349942073 H 0.0 **** 0.06
13116 C 97.78523853013813 101.49935146217135 49.967196243473694 C 0.0 **** -0.24
13117 H 97.4685904294047 101.36483611853029 48.93294515847532 H 0.0 **** 0.06
13118 H 98.3516933381739 102.42652772284615 50.05572788435754 H 0.0 **** 0.06
13119 H 98.4123567300201 100.65926856219352 50.266134706407854 H 0.0 **** 0.06
13120 H 96.90743220341211 101.5462914403528 50.61197947561098 H 0.0 **** 0.06
13121 C 41.862263195035005 86.01949679700778 33.161074618838796 C 0.0 **** -0.24
13122 H 42.812853053419786 85.90470140439189 32.640674173198704 H 0.0 **** 0.06
13123 H 41.109349555132724 86.38847537743474 32.46415956411954 H 0.0 **** 0.06
13124 H 41.98091565620538 86.73053215487607 33.97898784464991 H 0.0 **** 0.06
13125 H 41.54785463710159 85.0557944334804 33.560356060634575 H 0.0 **** 0.06
13126 C 20.231379734086104 15.896813187743273 9.575053498857585 C 0.0 **** -0.24
13127 H 20.32342164976137 16.728931323750714 8.877044615646895 H 0.0 **** 0.06
13128 H 19.829253596265602 16.259756679313373 10.521089604401084 H 0.0 **** 0.06
13129 H 21.212172474347582 15.45275690735998 9.743012699715138 H 0.0 **** 0.06
13130 H 19.55913919854727 15.145417426738469 9.15835951802427 H 0.0 **** 0.06
13131 C 4.722577873658736 57.985702449407086 5.862210195680092 C 0.0 **** -0.24
13132 H 5.147827988247258 58.95288244014376 6.129533774861329 H 0.0 **** 0.06
13133 H 4.087112640298187 57.630520971947604 6.674476062373344 H 0.0 **** 0.06
13134 H 5.527908034581856 57.269994629442664 5.6918299301668185 H 0.0 **** 0.06
13135 H 4.129850408969034 58.08720911074481 4.953670592689775 H 0.0 **** 0.06
13136 C 73.73878287230801 36.42147051481376 20.463085785712963 C 0.0 **** -0.24
13137 H 74.63119104027746 37.04332735093402 20.53120647000651 H 0.0 **** 0.06
13138 H 73.76975647683523 35.8417012486463 19.541165565925667 H 0.0 **** 0.06
13139 H 72.85258285630215 37.05711594378076 20.463518316348882 H 0.0 **** 0.06
13140 H 73.70094957407622 35.74580068871671 21.317017628161523 H 0.0 **** 0.06
13141 C 40.68092408129934 103.71226371228657 65.60911505147533 C 0.0 **** -0.24
13142 H 39.75314315712777 103.58447947858677 66.16684119977282 H 0.0 **** 0.06
13143 H 41.29478536732125 102.8175845399941 65.71598055021695 H 0.0 **** 0.06
13144 H 41.22280413766805 104.57428862182606 65.9988223643216 H 0.0 **** 0.06
13145 H 40.452042600716766 103.8723789984262 64.55503340533386 H 0.0 **** 0.06
13146 C 95.4184218849152 3.3558488822761774 21.933137131816085 C 0.0 **** -0.24
13147 H 95.43018299716297 4.232869155160529 21.284848698689775 H 0.0 **** 0.06
13148 H 95.98544279657176 2.550611322484457 21.463843449880034 H 0.0 **** 0.06
13149 H 94.38944661424141 3.0334827964580597 22.088564444295255 H 0.0 **** 0.06
13150 H 95.87084748722351 3.60701697857084 22.892521503797113 H 0.0 **** 0.06
13151 C 67.74469295642908 38.77076206104222 96.41092263549132 C 0.0 **** -0.24
13152 H 68.78047060330135 38.46073248056474 96.26983022729144 H 0.0 **** 0.06
13153 H 67.44325738794026 38.56937325475817 97.43910300673596 H 0.0 **** 0.06
13154 H 67.1031751507494 38.21417177133455 95.72868088852125 H 0.0 **** 0.06
13155 H 67.65403713564251 39.83762586590332 96.20780485793651 H 0.0 **** 0.06
13156 C 100.16032678376143 39.434991521370016 4.01366307321328 C 0.0 **** -0.24
13157 H 99.85522592860531 39.64733815869671 2.988898177681051 H 0.0 **** 0.06
13158 H 100.13061019004927 38.35832289043294 4.184710868259344 H 0.0 **** 0.06
13159 H 99.48102872442284 39.932353453061225 4.70486918767989 H 0.0 **** 0.06
13160 H 101.17404218160652 39.800657860529505 4.173690803003225 H 0.0 **** 0.06
13161 C 94.3507236404494 38.751322949288294 95.0238684148488 C 0.0 **** -0.24
13162 H 94.54894016875768 39.816876166975476 94.91151976456538 H 0.0 **** 0.06
13163 H 93.73116110558158 38.58744809176429 95.90511921201053 H 0.0 **** 0.06
13164 H 95.29404737892352 38.21634812368515 95.1387379958343 H 0.0 **** 0.06
13165 H 93.82994703879605 38.383872856985334 94.14010213929669 H 0.0 **** 0.06
13166 C 35.88279843347452 29.32471912559555 43.514164398985656 C 0.0 **** -0.24
13167 H 36.38272183676923 29.934324660190555 44.26698668787077 H 0.0 **** 0.06
13168 H 34.80388998993093 29.380522648030308 43.6588787537475 H 0.0 **** 0.06
13169 H 36.21047717700989 28.289287348015876 43.61069115614339 H 0.0 **** 0.06
13170 H 36.136774108778305 29.694004970382935 42.52125505471582 H 0.0 **** 0.06
13171 C 67.17853175529808 103.5469639636749 66.75644745570008 C 0.0 **** -0.24
13172 H 67.41209301776507 102.61644825861484 67.27275968225666 H 0.0 **** 0.06
13173 H 66.17021383416844 103.49177498435174 66.34644276993654 H 0.0 **** 0.06
13174 H 67.89276889132685 103.70158003158579 65.94636660034246 H 0.0 **** 0.06
13175 H 67.24036430571562 104.37869775090832 67.45825608478975 H 0.0 **** 0.06
13176 C 95.3951628191148 106.9009327857918 41.08167071243075 C 0.0 **** -0.24
13177 H 94.59999560534598 107.18402379816911 41.77133315626244 H 0.0 **** 0.06
13178 H 96.0988815014961 107.7283625799775 40.97966699389772 H 0.0 **** 0.06
13179 H 94.96539468546453 106.66797698448245 40.107331622298304 H 0.0 **** 0.06
13180 H 95.91710473234409 106.02507767960827 41.466754037340735 H 0.0 **** 0.06
13181 C 81.28936691059617 101.91945848563395 9.666026395955399 C 0.0 **** -0.24
13182 H 82.05971847701184 101.31994087304017 10.150118083939745 H 0.0 **** 0.06
13183 H 81.70198484805259 102.89105417334562 9.392984280400668 H 0.0 **** 0.06
13184 H 80.45345662847365 102.05949763197478 10.353023373526696 H 0.0 **** 0.06
13185 H 80.94001067662923 101.40730890833734 8.76990938020019 H 0.0 **** 0.06
13186 C 35.05635161298764 102.34866295625926 66.48852306375676 C 0.0 **** -0.24
13187 H 34.17531104446911 102.4947501601016 65.86452490703618 H 0.0 **** 0.06
13188 H 35.062768376280616 103.0883530023638 67.28924035382852 H 0.0 **** 0.06
13189 H 35.95437347309891 102.46204919911733 65.88159309600445 H 0.0 **** 0.06
13190 H 35.0343566902105 101.34758149220883 66.9193279376143 H 0.0 **** 0.06
13191 C 40.23969433821631 62.55966454413527 89.60822178665012 C 0.0 **** -0.24
13192 H 39.219302828307946 62.386596564713216 89.26578878223485 H 0.0 **** 0.06
13193 H 40.36848842063614 62.12973492838904 90.60178826157482 H 0.0 **** 0.06
13194 H 40.43200964548396 63.632432065782666 89.64903156270289 H 0.0 **** 0.06
13195 H 40.9396491255435 62.09258185235751 88.91512671412258 H 0.0 **** 0.06
13196 C 71.99600494151682 9.673323451089047 39.99779825659351 C 0.0 **** -0.24
13197 H 71.97495756938935 9.709399937968243 41.08712567073877 H 0.0 **** 0.06
13198 H 72.00347675030628 10.689079213881598 39.60057894866259 H 0.0 **** 0.06
13199 H 71.11204505555938 9.14807761158076 39.63544420758359 H 0.0 **** 0.06
13200 H 72.89208218144898 9.147929719817455 39.6692489287166 H 0.0 **** 0.06
13201 C 49.918946027745164 78.94285356388127 91.07267899997998 C 0.0 **** -0.24
13202 H 49.3476758496613 78.43733854866178 90.29411001873996 H 0.0 **** 0.06
13203 H 49.98937370697007 78.29835796144857 91.94868644873293 H 0.0 **** 0.06
13204 H 49.418753796207 79.87322870249079 91.34372437134544 H 0.0 **** 0.06
13205 H 50.920162690786526 79.16448419688601 90.70219850650784 H 0.0 **** 0.06
13206 C 39.673792141211834 62.92614451097961 99.89454636115903 C 0.0 **** -0.24
13207 H 40.16144476684616 62.30177673511133 99.1457923880302 H 0.0 **** 0.06
13208 H 38.79885830090518 63.40539304215605 99.45319455798756 H 0.0 **** 0.06
13209 H 40.3706258109039 63.68969922293647 100.24004706956693 H 0.0 **** 0.06
13210 H 39.363837834841945 62.30880418754175 100.73699749038468 H 0.0 **** 0.06
13211 C 34.30345170141459 91.09461317323196 23.14386058127694 C 0.0 **** -0.24
13212 H 35.35162809274746 91.23319524939758 22.879431093064014 H 0.0 **** 0.06
13213 H 34.09944990546214 90.03304703112401 23.279765879653468 H 0.0 **** 0.06
13214 H 33.672814958250996 91.48602071036207 22.344898005263744 H 0.0 **** 0.06
13215 H 34.08890460043895 91.6284970834531 24.069717064203545 H 0.0 **** 0.06
13216 C 82.78051910554395 61.74224146308711 0.029968005742105674 C 0.0 **** -0.24
13217 H 81.86275811601536 62.31976726110088 0.14694018414455456 H 0.0 **** 0.06
13218 H 83.63582834200139 62.419144040016704 0.026390976106796415 H 0.0 **** 0.06
13219 H 82.74710413360661 61.19340282263528 -0.9108004358310637 H 0.0 **** 0.06
13220 H 82.87577348608552 61.040845095609484 0.8583618779184832 H 0.0 **** 0.06
13221 C 41.40862509921416 12.25788276250106 31.483827095818604 C 0.0 **** -0.24
13222 H 40.463369734875414 11.757154181921905 31.27436375183313 H 0.0 **** 0.06
13223 H 41.23879305891535 13.076475914853738 32.18329978345929 H 0.0 **** 0.06
13224 H 41.82337109988538 12.653122576990867 30.55516081101395 H 0.0 **** 0.06
13225 H 42.10880676692551 11.54598994894533 31.920361102162104 H 0.0 **** 0.06
13226 C 41.22455097749261 16.410771168582414 19.25523663879332 C 0.0 **** -0.24
13227 H 42.07912703625681 15.83166727381385 18.90465117456783 H 0.0 **** 0.06
13228 H 40.311138994688775 16.016439735826168 18.808352936334018 H 0.0 **** 0.06
13229 H 41.3501863332246 17.453486676777203 18.96743682856514 H 0.0 **** 0.06
13230 H 41.15775076650161 16.33852954956933 20.34098550815814 H 0.0 **** 0.06
13231 C 45.509951121117844 93.5056040509847 78.85732728270641 C 0.0 **** -0.24
13232 H 45.637972294871076 92.99975135517671 77.90115822634895 H 0.0 **** 0.06
13233 H 45.76958013892986 94.55878481228505 78.74900011640153 H 0.0 **** 0.06
13234 H 46.15986720735494 93.04543058788663 79.60150344793668 H 0.0 **** 0.06
13235 H 44.47156728521431 93.41793592904381 79.17868077543993 H 0.0 **** 0.06
13236 C 35.03826345041401 45.29086259188219 87.84332167635489 C 0.0 **** -0.24
13237 H 34.24214559172029 45.724063863506956 87.23841698371359 H 0.0 **** 0.06
13238 H 35.53960885053783 46.080223286375315 88.40268127002707 H 0.0 **** 0.06
13239 H 35.757559433911496 44.790848640376424 87.19394036350826 H 0.0 **** 0.06
13240 H 34.61286222776528 44.5663039518262 88.53868082628532 H 0.0 **** 0.06
13241 C 25.91697403356838 21.387129557453363 2.796941700678701 C 0.0 **** -0.24
13242 H 25.67250189651422 20.427555529462552 2.341661837659032 H 0.0 **** 0.06
13243 H 25.19469068243431 22.137159179233066 2.4730341786870866 H 0.0 **** 0.06
13244 H 26.917930423290095 21.689772461485063 2.4894318890831073 H 0.0 **** 0.06
13245 H 25.882677943742173 21.29362293333574 3.881958269349994 H 0.0 **** 0.06
13246 C 28.498742798869245 65.96370427691471 81.66304283045145 C 0.0 **** -0.24
13247 H 29.233917074404616 65.21197114026069 81.95099560687748 H 0.0 **** 0.06
13248 H 27.579092172457365 65.46896787598718 81.34893078646581 H 0.0 **** 0.06
13249 H 28.891092818398903 66.55813438963557 80.83909506401926 H 0.0 **** 0.06
13250 H 28.291462146817423 66.61215917989398 82.51404439161524 H 0.0 **** 0.06
13251 C 68.10107261138174 11.572177449573473 15.02174631092154 C 0.0 **** -0.24
13252 H 67.28632889418171 10.869195401447854 15.199871820139158 H 0.0 **** 0.06
13253 H 68.12887522097705 12.306100517723166 15.828192049346388 H 0.0 **** 0.06
13254 H 67.9398862317127 12.080514575133861 14.071905295166918 H 0.0 **** 0.06
13255 H 69.04650662020313 11.03073034011004 14.98926141917132 H 0.0 **** 0.06
13256 C 10.109351259557286 25.827464799534127 16.864153606030065 C 0.0 **** -0.24
13257 H 9.27103838451336 25.356513770545988 17.378512825208947 H 0.0 **** 0.06
13258 H 10.459212620820097 25.174325720257187 16.064979620908808 H 0.0 **** 0.06
13259 H 10.919261382435252 25.999327967408135 17.57346339385544 H 0.0 **** 0.06
13260 H 9.788197008989528 26.77954002238721 16.44208440853496 H 0.0 **** 0.06
13261 C 23.386090757386853 62.77811340156643 79.14037998716515 C 0.0 **** -0.24
13262 H 23.766175750483086 63.779264272866214 78.93781142016547 H 0.0 **** 0.06
13263 H 24.10312591465916 62.03906847683557 78.78117816742741 H 0.0 **** 0.06
13264 H 22.434946741515034 62.640070215434434 78.62736654449475 H 0.0 **** 0.06
13265 H 23.241634333540077 62.653757457059896 80.21354989189024 H 0.0 **** 0.06
13266 C 28.82229578853729 62.53439994338021 16.054552404574792 C 0.0 **** -0.24
13267 H 29.09493336868134 61.49198607539398 16.215998170297723 H 0.0 **** 0.06
13268 H 28.6234641934847 63.011371587049425 17.01501469985618 H 0.0 **** 0.06
13269 H 27.92793467642679 62.583424926446085 15.433096470966177 H 0.0 **** 0.06
13270 H 29.641769993708394 63.05156820382142 15.554617645743406 H 0.0 **** 0.06
13271 C 87.18480684682288 86.1511323204937 32.0947558866769 C 0.0 **** -0.24
13272 H 87.97322669050808 86.83564889139089 31.78060312696787 H 0.0 **** 0.06
13273 H 87.0475156513521 86.22687790486137 33.17363932021053 H 0.0 **** 0.06
13274 H 87.46528184982597 85.1308996677046 31.833574344032044 H 0.0 **** 0.06
13275 H 86.25530830130668 86.4134328641027 31.590832755885693 H 0.0 **** 0.06
13276 C 91.5498631427765 68.66844746730125 95.41415337554577 C 0.0 **** -0.24
13277 H 92.5055695609588 69.1282338987373 95.6654905592232 H 0.0 **** 0.06
13278 H 91.58237594018743 68.29835629912539 94.38929086538985 H 0.0 **** 0.06
13279 H 90.75443996591184 69.40844780340545 95.50816522141378 H 0.0 **** 0.06
13280 H 91.35522937234714 67.83897122918982 96.09492178765882 H 0.0 **** 0.06
13281 C 74.94725975457169 81.18671888125431 82.08067367919895 C 0.0 **** -0.24
13282 H 74.10404182125066 80.66959701283577 82.54015193127611 H 0.0 **** 0.06
13283 H 74.5767138838956 81.91682640590682 81.36141750197285 H 0.0 **** 0.06
13284 H 75.58307328225607 80.46330025760784 81.57075080485174 H 0.0 **** 0.06
13285 H 75.52426051516372 81.6967782503479 82.85236422099837 H 0.0 **** 0.06
13286 C 86.7826450133839 97.8653551734692 31.527179248058694 C 0.0 **** -0.24
13287 H 86.52369146055261 97.45126154925454 30.553112412637972 H 0.0 **** 0.06
13288 H 85.87899952896413 97.9655074389276 32.13015119199742 H 0.0 **** 0.06
13289 H 87.24144719037609 98.84555922835855 31.39591881967123 H 0.0 **** 0.06
13290 H 87.48324568951533 97.19982990731243 32.030025598050564 H 0.0 **** 0.06
13291 C 94.38526459709999 3.28006430500713 63.672310105118186 C 0.0 **** -0.24
13292 H 94.68346068559129 3.5890596995760404 62.67045100971069 H 0.0 **** 0.06
13293 H 94.08787461894836 2.231851841658113 63.65474559431419 H 0.0 **** 0.06
13294 H 93.54626737508416 3.891166348379187 64.00518945930793 H 0.0 **** 0.06
13295 H 95.22313739918553 3.410067603338291 64.35677265765247 H 0.0 **** 0.06
13296 C 103.25493659154603 6.232757167725197 52.55049724090611 C 0.0 **** -0.24
13297 H 103.38042866283826 6.972550867265795 51.75964216727277 H 0.0 **** 0.06
13298 H 102.26730294676275 5.778686960976927 52.46912928807802 H 0.0 **** 0.06
13299 H 103.35296397689302 6.719290313343976 53.521173220392996 H 0.0 **** 0.06
13300 H 104.01925439570948 5.4618747816784605 52.45060548450704 H 0.0 **** 0.06
13301 C 47.513815536821404 2.729402186943048 55.69097650790853 C 0.0 **** -0.24
13302 H 47.670147227241 2.7747854597063792 56.769337545028044 H 0.0 **** 0.06
13303 H 46.4703192589035 2.488146769531312 55.48644512514998 H 0.0 **** 0.06
13304 H 48.15615513760878 1.9604396580059529 55.262414786519294 H 0.0 **** 0.06
13305 H 47.75700197190208 3.6955712115291846 55.24826497132472 H 0.0 **** 0.06
13306 C 57.63655497322367 66.14561490492486 55.69139676725627 C 0.0 **** -0.24
13307 H 58.49225850332323 65.57906682197364 55.32286659511053 H 0.0 **** 0.06
13308 H 57.83053184904361 66.47307438077394 56.71312422698274 H 0.0 **** 0.06
13309 H 56.74830856290248 65.51393446910481 55.673596239835724 H 0.0 **** 0.06
13310 H 57.47588455665618 67.01586283025836 55.054929738149724 H 0.0 **** 0.06
13311 C 53.511930817660016 11.689234923747335 91.73835239553384 C 0.0 **** -0.24
13312 H 52.81047133625239 11.182398994674486 92.40071454983789 H 0.0 **** 0.06
13313 H 53.181926740696554 11.573799964091734 90.70490530690027 H 0.0 **** 0.06
13314 H 54.50246530178694 11.251982075735953 91.85416682529355 H 0.0 **** 0.06
13315 H 53.54894559202151 12.748372128638266 91.99106754051748 H 0.0 **** 0.06
13316 C 22.384248438079716 42.60956411330887 51.37800103517577 C 0.0 **** -0.24
13317 H 22.597908554830344 42.11292129744331 52.32485688968566 H 0.0 **** 0.06
13318 H 23.095627924066918 42.273175037577246 50.62362027361837 H 0.0 **** 0.06
13319 H 22.473618643446652 43.688790559626206 51.50648840012235 H 0.0 **** 0.06
13320 H 21.371220578858146 42.364015987787155 51.059621746068586 H 0.0 **** 0.06
13321 C 22.840757574017275 75.14121480778167 87.09757767486741 C 0.0 **** -0.24
13322 H 22.645647062686464 76.21291457171804 87.09246455190632 H 0.0 **** 0.06
13323 H 22.60296346990087 74.72431193161418 86.11845423720638 H 0.0 **** 0.06
13324 H 22.221744555245422 74.66324491765712 87.85717848982631 H 0.0 **** 0.06
13325 H 23.89267520823674 74.9643878101374 87.32221342053103 H 0.0 **** 0.06
13326 C 39.87881112152971 24.317940901378904 79.5482441138627 C 0.0 **** -0.24
13327 H 40.51191941400718 24.92190170710637 80.19753133798628 H 0.0 **** 0.06
13328 H 40.15712034559769 24.489461121226327 78.50758202757152 H 0.0 **** 0.06
13329 H 38.83572577358801 24.598347296283976 79.69615603929157 H 0.0 **** 0.06
13330 H 40.009104871231884 23.263575391702375 79.79081490865877 H 0.0 **** 0.06
13331 C 88.36883678968357 12.099758424002857 84.6750005953033 C 0.0 **** -0.24
13332 H 88.60274586898029 11.405178245202563 85.48219180759811 H 0.0 **** 0.06
13333 H 88.38423839613407 11.568556030276113 83.72282909918225 H 0.0 **** 0.06
13334 H 89.1093613760028 12.898622925656383 84.65769466743473 H 0.0 **** 0.06
13335 H 87.37841700244175 12.524908211785544 84.83801598537967 H 0.0 **** 0.06
13336 C 45.062282217209884 107.10669975867862 102.70489871311469 C 0.0 **** -0.24
13337 H 44.84086335160936 108.0941934494177 102.3014466705927 H 0.0 **** 0.06
13338 H 44.13762638849198 106.63448953746948 103.03790449042884 H 0.0 **** 0.06
13339 H 45.744872080702066 107.20334258310842 103.54864743611563 H 0.0 **** 0.06
13340 H 45.52526553193741 106.49393197582978 101.93179731277792 H 0.0 **** 0.06
13341 C 44.25956535376278 58.19319389997651 0.6864225126548513 C 0.0 **** -0.24
13342 H 43.520391042021544 58.90770107430626 0.32538442241927523 H 0.0 **** 0.06
13343 H 44.7980820163375 57.767602104901584 -0.15980623612725298 H 0.0 **** 0.06
13344 H 43.7565463322442 57.39547575821592 1.2350949508661477 H 0.0 **** 0.06
13345 H 44.9628929145517 58.70071648646632 1.3477075799364595 H 0.0 **** 0.06
13346 C 54.64766774030438 16.431410599210437 14.39183076521951 C 0.0 **** -0.24
13347 H 53.693037952401745 16.694846967419494 13.937567727149712 H 0.0 **** 0.06
13348 H 55.33507285918599 17.273758514957905 14.305679950444357 H 0.0 **** 0.06
13349 H 55.067607293428544 15.566098971970604 13.87874667950615 H 0.0 **** 0.06
13350 H 54.49623169312651 16.191336072510936 15.444230429334766 H 0.0 **** 0.06
13351 C 63.93478288510018 85.40714852186072 16.979374049610016 C 0.0 **** -0.24
13352 H 64.47302587342567 85.37031370024188 17.926731114925822 H 0.0 **** 0.06
13353 H 64.54514663797815 84.95693556269296 16.19682880153497 H 0.0 **** 0.06
13354 H 63.72239087578768 86.44513752401944 16.722679312934172 H 0.0 **** 0.06
13355 H 62.99861230710127 84.85709770089674 17.072354844102765 H 0.0 **** 0.06
13356 C 44.88231575285003 40.52494090003762 41.89372075135369 C 0.0 **** -0.24
13357 H 45.00573015942649 39.53050967215731 41.46423717011398 H 0.0 **** 0.06
13358 H 45.268655956900744 40.530484390773125 42.913148651237776 H 0.0 **** 0.06
13359 H 43.82361964972163 40.786489850901745 41.90465111789326 H 0.0 **** 0.06
13360 H 45.429151954544665 41.25105209692728 41.29259898076685 H 0.0 **** 0.06
13361 C 76.97736564200531 71.60985092061553 38.81492569718165 C 0.0 **** -0.24
13362 H 76.40874525642968 70.8735909205275 38.24756713342725 H 0.0 **** 0.06
13363 H 78.04192224181477 71.46914782366326 38.62730480351604 H 0.0 **** 0.06
13364 H 76.77547090519303 71.48350131014409 39.87852618252751 H 0.0 **** 0.06
13365 H 76.68371418922081 72.61234741594585 38.50587837768205 H 0.0 **** 0.06
13366 C 7.165849330304724 16.738244170749198 75.09081378071392 C 0.0 **** -0.24
13367 H 6.107751369624097 16.90375383060018 74.8907215152989 H 0.0 **** 0.06
13368 H 7.275816509582782 15.956857446700894 75.84248770895294 H 0.0 **** 0.06
13369 H 7.614669623133935 17.66208069519908 75.45806057174396 H 0.0 **** 0.06
13370 H 7.665946635390242 16.431826927489368 74.17193409535547 H 0.0 **** 0.06
13371 C 87.02228139174565 106.93439531837578 77.19240000654766 C 0.0 **** -0.24
13372 H 87.94505274093444 107.47158081686933 76.97222619957333 H 0.0 **** 0.06
13373 H 87.03431403826482 106.60296778518182 78.2305231658464 H 0.0 **** 0.06
13374 H 86.94091153068746 106.06862994318274 76.53479146652356 H 0.0 **** 0.06
13375 H 86.170010544761 107.59550542502154 77.03050001115348 H 0.0 **** 0.06
13376 C 101.23486686201589 13.675119696812843 76.7336310239713 C 0.0 **** -0.24
13377 H 101.32303816572497 12.862851457306817 77.45670912567138 H 0.0 **** 0.06
13378 H 101.37746640416775 14.62938572062022 77.24168070493695 H 0.0 **** 0.06
13379 H 100.24564540645454 13.648811033278292 76.27713956528481 H 0.0 **** 0.06
13380 H 101.99473841657448 13.556138265385528 75.9610299859772 H 0.0 **** 0.06
13381 C 14.483892669659014 90.79390434301669 74.19236360890778 C 0.0 **** -0.24
13382 H 13.648521858622132 90.41541092062394 74.78189059680875 H 0.0 **** 0.06
13383 H 14.877698649429249 89.99388075117662 73.56592942705291 H 0.0 **** 0.06
13384 H 15.26602587784771 91.152081906727 74.86105721740802 H 0.0 **** 0.06
13385 H 14.140118916860615 91.61368495864181 73.56176623667562 H 0.0 **** 0.06
13386 C 78.44686613355304 13.413535871539636 66.37432255292164 C 0.0 **** -0.24
13387 H 78.0459828901287 13.713975305671966 65.40658836927577 H 0.0 **** 0.06
13388 H 79.52128194971988 13.598953788176345 66.39613101699683 H 0.0 **** 0.06
13389 H 78.25798872075018 12.351488964826672 66.53147027918392 H 0.0 **** 0.06
13390 H 77.96210300045959 13.988826015576308 67.16267693548042 H 0.0 **** 0.06
13391 C 73.6535401691683 24.772914397157393 1.8202785591324124 C 0.0 **** -0.24
13392 H 74.00620294740499 23.90921492505936 2.384817253751576 H 0.0 **** 0.06
13393 H 72.7248177833338 25.138386847053056 2.2578197568256293 H 0.0 **** 0.06
13394 H 73.47795182080736 24.48193194015397 0.7840446553964453 H 0.0 **** 0.06
13395 H 74.40709610955894 25.56002595081719 1.8534534289706475 H 0.0 **** 0.06
13396 C 78.2533120350974 30.657624750747402 72.0037973546664 C 0.0 **** -0.24
13397 H 78.47401942866924 31.725332564836435 71.98322978416742 H 0.0 **** 0.06
13398 H 78.61723178320119 30.193786353864425 71.08799334621477 H 0.0 **** 0.06
13399 H 77.1759448299741 30.51186741456479 72.08212622201437 H 0.0 **** 0.06
13400 H 78.74554308899354 30.202290346092013 72.86326340170122 H 0.0 **** 0.06
13401 C 73.80107556341706 89.80507825426969 82.31375459007339 C 0.0 **** -0.24
13402 H 72.73522461756251 89.90154142768324 82.52189480867341 H 0.0 **** 0.06
13403 H 74.37206600725887 90.22555683415123 83.1414455801553 H 0.0 **** 0.06
13404 H 74.04156948703918 90.3430941077387 81.3967129722561 H 0.0 **** 0.06
13405 H 74.05494482757437 88.75219565553596 82.19429623133536 H 0.0 **** 0.06
13406 C 65.55426972219254 15.66605429120716 39.33947465271831 C 0.0 **** -0.24
13407 H 65.27899836478679 15.58503395273641 40.39064878440348 H 0.0 **** 0.06
13408 H 66.53795214742252 16.12989401532758 39.25648443719345 H 0.0 **** 0.06
13409 H 64.81857558935613 16.279041591357384 38.81787953756006 H 0.0 **** 0.06
13410 H 65.58129369378219 14.67254564190381 38.893693425333396 H 0.0 **** 0.06
13411 C 85.58705699381645 41.982102767748074 86.774013674216 C 0.0 **** -0.24
13412 H 85.47803330103827 41.52303743953178 87.75688070059292 H 0.0 **** 0.06
13413 H 85.56289831089461 41.20714135699427 86.0076150206566 H 0.0 **** 0.06
13414 H 86.53780517336298 42.51312436132599 86.72541654345176 H 0.0 **** 0.06
13415 H 84.77053920716318 42.68430745366567 86.60820669980038 H 0.0 **** 0.06
13416 C 98.67546220832645 57.02513469361537 84.17487198093556 C 0.0 **** -0.24
13417 H 97.77085842977982 56.788364190127965 83.61560514317387 H 0.0 **** 0.06
13418 H 98.75475161039446 56.360115905882054 85.03505447667976 H 0.0 **** 0.06
13419 H 98.63144554326891 58.059146549587155 84.51743546263344 H 0.0 **** 0.06
13420 H 99.54561316645612 56.8919732533584 83.53206092931862 H 0.0 **** 0.06
13421 C 32.0811955231182 15.872122801656037 50.94565723146346 C 0.0 **** -0.24
13422 H 31.55314266985829 14.96298701461507 51.233599969291674 H 0.0 **** 0.06
13423 H 31.361122284950127 16.619517707954152 50.610606263611174 H 0.0 **** 0.06
13424 H 32.776836906959886 15.648598669165327 50.136910838853254 H 0.0 **** 0.06
13425 H 32.63284625090742 16.257870480685398 51.802951176706244 H 0.0 **** 0.06
13426 C 68.35060595649736 96.9459010160598 66.98956752728759 C 0.0 **** -0.24
13427 H 67.83754234107349 96.80200725774358 66.0386327107137 H 0.0 **** 0.06
13428 H 68.11154231726843 96.11967961203746 67.66005953527227 H 0.0 **** 0.06
13429 H 68.02497448684812 97.88401597734428 67.4385688123815 H 0.0 **** 0.06
13430 H 69.42651037667116 96.97796473092558 66.81976095125333 H 0.0 **** 0.06
13431 C 98.49369677603403 8.300111383459111 3.5930394845365754 C 0.0 **** -0.24
13432 H 97.71882599301786 8.110368151166114 2.8509926971149753 H 0.0 **** 0.06
13433 H 98.12122403092081 8.036109670022682 4.5826590285306565 H 0.0 **** 0.06
13434 H 98.76353886934835 9.356815765587697 3.5750985511251656 H 0.0 **** 0.06
13435 H 99.3725611646481 7.697710274913959 3.362054586676493 H 0.0 **** 0.06
13436 C 83.26154041398402 92.7515573391381 96.13878778716892 C 0.0 **** -0.24
13437 H 83.92862429969546 92.45029205948707 95.33072463570167 H 0.0 **** 0.06
13438 H 82.30523166907427 92.23828229398383 96.03005371753663 H 0.0 **** 0.06
13439 H 83.1040241381118 93.82876636592418 96.0983404885343 H 0.0 **** 0.06
13440 H 83.70990985436656 92.4851872986449 97.09683822119464 H 0.0 **** 0.06
13441 C 32.76492280442275 39.48973402006939 58.331874517153366 C 0.0 **** -0.24
13442 H 32.747208336009436 38.41802681566813 58.133104334083804 H 0.0 **** 0.06
13443 H 33.402085457181244 39.98445713939179 57.59830820748807 H 0.0 **** 0.06
13444 H 33.1563438716922 39.6669180302529 59.33316670224034 H 0.0 **** 0.06
13445 H 31.751969318347605 39.888350448987296 58.2611145622527 H 0.0 **** 0.06
13446 C 64.59510494031835 60.96030443730079 3.817589982289803 C 0.0 **** -0.24
13447 H 64.8674809164375 61.924439600797186 3.3878337295668075 H 0.0 **** 0.06
13448 H 63.69981186625763 61.07547791385012 4.428779888390068 H 0.0 **** 0.06
13449 H 65.41394878030538 60.59372541543247 4.436070589529322 H 0.0 **** 0.06
13450 H 64.3989857015605 60.249210236458495 3.0146279507281406 H 0.0 **** 0.06
13451 C 41.491397578865865 78.71296372217347 76.22551200925034 C 0.0 **** -0.24
13452 H 40.53418618473282 78.28551262379474 76.52594613608284 H 0.0 **** 0.06
13453 H 41.80312011395124 79.45599313340517 76.9593996375857 H 0.0 **** 0.06
13454 H 41.38633238343131 79.18627707262596 75.24945951696662 H 0.0 **** 0.06
13455 H 42.239566775057554 77.92259911854421 76.16762125147827 H 0.0 **** 0.06
13456 C 20.48230553562685 23.17182670563065 56.68079661130298 C 0.0 **** -0.24
13457 H 19.967200643025084 22.355018004194648 57.18660113227472 H 0.0 **** 0.06
13458 H 21.240922061008956 22.763885437253577 56.011601070718456 H 0.0 **** 0.06
13459 H 20.958617486233972 23.813542349881033 57.42104967469729 H 0.0 **** 0.06
13460 H 19.76239503304897 23.75262689963006 56.103971056592854 H 0.0 **** 0.06
13461 C 61.77340041219166 38.02907461063318 91.98724366907882 C 0.0 **** -0.24
13462 H 61.846304317518516 36.94489550836262 91.89768121441556 H 0.0 **** 0.06
13463 H 60.79932121486462 38.358142046594594 91.62678008046991 H 0.0 **** 0.06
13464 H 62.55804156688508 38.49569751426043 91.39177996271135 H 0.0 **** 0.06
13465 H 61.89145411942954 38.31602807160241 93.03215550340029 H 0.0 **** 0.06
13466 C 40.04030792695113 9.083830219546456 51.78968417650324 C 0.0 **** -0.24
13467 H 40.78061015325528 9.827569398055289 52.085299428997125 H 0.0 **** 0.06
13468 H 40.139457547537944 8.20200282060837 52.422522616202976 H 0.0 **** 0.06
13469 H 40.20129032207157 8.805380817361296 50.74854332393076 H 0.0 **** 0.06
13470 H 39.04015668560794 9.503060253619992 51.90366410352279 H 0.0 **** 0.06
13471 C 24.583130294874394 9.618755877101592 59.70992641821595 C 0.0 **** -0.24
13472 H 25.599856552527456 9.566531107925584 59.32081462587359 H 0.0 **** 0.06
13473 H 23.96152523597172 8.880316873625361 59.20257570951539 H 0.0 **** 0.06
13474 H 24.179205465387213 10.615503639396877 59.53401361333565 H 0.0 **** 0.06
13475 H 24.592295115034176 9.413131629122347 60.7801433891224 H 0.0 **** 0.06
13476 C 81.35592350093027 45.89661939181695 72.1860596975664 C 0.0 **** -0.24
13477 H 82.35672089116231 46.32440032004691 72.12302962776488 H 0.0 **** 0.06
13478 H 80.87155439482565 45.96180645699739 71.21153522688735 H 0.0 **** 0.06
13479 H 80.77017644181741 46.44794932284059 72.92089256864034 H 0.0 **** 0.06
13480 H 81.42661010034608 44.851330998702124 72.48700702078122 H 0.0 **** 0.06
13481 C 5.5654363617838385 85.68689548930391 59.87247621212052 C 0.0 **** -0.24
13482 H 5.881463785462415 85.14270131562495 60.762826202636404 H 0.0 **** 0.06
13483 H 6.435890883374896 85.90662447501529 59.25405821413486 H 0.0 **** 0.06
13484 H 5.085044217058737 86.61942096320465 60.168881915947054 H 0.0 **** 0.06
13485 H 4.860328835454084 85.0791262293042 59.30636353656425 H 0.0 **** 0.06
13486 C 49.68187396968246 38.45384692944271 20.706698568277716 C 0.0 **** -0.24
13487 H 49.26375203874009 39.40307951914213 21.042626056023835 H 0.0 **** 0.06
13488 H 49.068815043316214 38.052964633381436 19.898943725006518 H 0.0 **** 0.06
13489 H 49.69350739462666 37.7490564865603 21.537303613375457 H 0.0 **** 0.06
13490 H 50.69811900136151 38.61126615346226 20.348289816197166 H 0.0 **** 0.06
13491 C 94.23973741246864 43.83225135987914 96.36905852530144 C 0.0 **** -0.24
13492 H 94.9180026047745 43.086468441729636 95.95530999791426 H 0.0 **** 0.06
13493 H 94.80804568545105 44.71097932103274 96.67459837922975 H 0.0 **** 0.06
13494 H 93.72340475704473 43.41421348534223 97.23314684666445 H 0.0 **** 0.06
13495 H 93.50810381325874 44.11754205140005 95.61175719759625 H 0.0 **** 0.06
13496 C 45.75779647698366 52.79710298847408 47.85715250878792 C 0.0 **** -0.24
13497 H 44.888532038883824 53.24467083798345 47.37433773319077 H 0.0 **** 0.06
13498 H 46.49971181796687 53.56963611441989 48.058114897608675 H 0.0 **** 0.06
13499 H 46.188072586136144 52.04127256370117 47.19995652862991 H 0.0 **** 0.06
13500 H 45.45258044708271 52.331910837295084 48.794494574409214 H 0.0 **** 0.06
13501 C 29.567109900548758 53.30304716474626 42.375256208208455 C 0.0 **** -0.24
13502 H 29.59827544066286 53.89389227558007 41.46011335258319 H 0.0 **** 0.06
13503 H 30.1045609620921 52.366998772751174 42.22180428120984 H 0.0 **** 0.06
13504 H 28.53073893014222 53.088566948835705 42.63418691385206 H 0.0 **** 0.06
13505 H 30.03624091015692 53.86240702538845 43.18490574207137 H 0.0 **** 0.06
13506 C 38.22258159848133 56.949807868305115 33.000813040670096 C 0.0 **** -0.24
13507 H 37.20216328854798 57.21958727965072 32.727400749736034 H 0.0 **** 0.06
13508 H 38.905958567979525 57.27091468767644 32.21503952997483 H 0.0 **** 0.06
13509 H 38.291541340977396 55.86875258722165 33.12420171976828 H 0.0 **** 0.06
13510 H 38.48862952473067 57.43971209746175 33.93750138675654 H 0.0 **** 0.06
13511 C 52.43699688305446 14.052583964422865 11.99457091957862 C 0.0 **** -0.24
13512 H 51.39365540822841 14.246143644321876 11.746825299311212 H 0.0 **** 0.06
13513 H 52.85274892301662 13.338666277816856 11.28245817868003 H 0.0 **** 0.06
13514 H 52.499717693326346 13.639206685051704 13.001554566744488 H 0.0 **** 0.06
13515 H 53.00068087807483 14.984191906551473 11.947712723048156 H 0.0 **** 0.06
13516 C 34.16661441577156 17.347012061051657 59.220044720499935 C 0.0 **** -0.24
13517 H 34.199663489228755 16.391091907504233 59.74242782729935 H 0.0 **** 0.06
13518 H 35.09537155175312 17.889531505750938 59.39655404145339 H 0.0 **** 0.06
13519 H 33.32636977369913 17.93401785078936 59.58980926069199 H 0.0 **** 0.06
13520 H 34.04613329237148 17.171822862151714 58.15023734340811 H 0.0 **** 0.06
13521 C 87.54521131972639 48.193873061468366 82.16503644734206 C 0.0 **** -0.24
13522 H 87.74103976177066 49.256758078886634 82.30827886713814 H 0.0 **** 0.06
13523 H 86.66743662595287 48.06974899636924 81.53055041320187 H 0.0 **** 0.06
13524 H 87.36495627465713 47.72368114633687 83.13201080707864 H 0.0 **** 0.06
13525 H 88.4071267050796 47.727528371779414 81.68832040547727 H 0.0 **** 0.06
13526 C 56.36461088409306 73.93916193660318 78.31955254640143 C 0.0 **** -0.24
13527 H 55.88504153084662 74.58252090949951 77.58171029755351 H 0.0 **** 0.06
13528 H 57.44435387719131 74.08157709170335 78.27836168716843 H 0.0 **** 0.06
13529 H 56.12596487367609 72.8976668351786 78.10414655552917 H 0.0 **** 0.06
13530 H 56.00152866814711 74.19605426496562 79.31509228999988 H 0.0 **** 0.06
13531 C 30.35093587858961 74.3952351077136 36.551152586420685 C 0.0 **** -0.24
13532 H 31.056455837733154 74.04290893413437 37.303624221817046 H 0.0 **** 0.06
13533 H 29.44768913004208 74.75842749883489 37.04157313402542 H 0.0 **** 0.06
13534 H 30.09674569740065 73.57502539717487 35.88030829977623 H 0.0 **** 0.06
13535 H 30.805554382181413 75.20533754203788 35.98016588841989 H 0.0 **** 0.06
13536 C 66.97101815846766 106.63966396231544 34.85598604557964 C 0.0 **** -0.24
13537 H 66.58614617208434 107.37526598811553 35.56197393529948 H 0.0 **** 0.06
13538 H 68.036078527822 106.81015260813271 34.69811347147723 H 0.0 **** 0.06
13539 H 66.44263520469354 106.73621948092651 33.907405420055795 H 0.0 **** 0.06
13540 H 66.818426380196 105.6374570120366 35.25601687942486 H 0.0 **** 0.06
13541 C 23.25703618535742 17.39540501416229 46.47032536521162 C 0.0 **** -0.24
13542 H 23.44366254257882 17.81765314666887 45.48231429276555 H 0.0 **** 0.06
13543 H 22.264926265469683 17.69317778817286 46.81061644494132 H 0.0 **** 0.06
13544 H 24.007472805142186 17.76281096674521 47.169779023137686 H 0.0 **** 0.06
13545 H 23.31216403357989 16.307366672809295 46.4162210840341 H 0.0 **** 0.06
13546 C 82.64962319899126 75.97207910002798 47.37440089471133 C 0.0 **** -0.24
13547 H 82.95395355848791 76.97417752179305 47.675527885716036 H 0.0 **** 0.06
13548 H 81.87547085462472 75.60871717996845 48.05066119684534 H 0.0 **** 0.06
13549 H 83.51072273162214 75.30406864412834 47.41538129459565 H 0.0 **** 0.06
13550 H 82.25961492826366 76.00023099348891 46.357096263171314 H 0.0 **** 0.06
13551 C 11.943117028416438 84.16613249338488 53.17134833465934 C 0.0 **** -0.24
13552 H 12.817277310429802 84.34311563769502 52.544792293342766 H 0.0 **** 0.06
13553 H 11.141591710663988 84.8425941150527 52.87433561789396 H 0.0 **** 0.06
13554 H 12.202045812501666 84.34506861874311 54.21561914358227 H 0.0 **** 0.06
13555 H 11.612536352671384 83.13470386440315 53.05029011424466 H 0.0 **** 0.06
13556 C 26.24375113532861 98.2745977680344 92.66219471685098 C 0.0 **** -0.24
13557 H 26.231904083075847 97.35422431874066 93.24507465012717 H 0.0 **** 0.06
13558 H 26.632074760811946 99.08835423972192 93.27688244228993 H 0.0 **** 0.06
13559 H 25.229975195250603 98.51451280494298 92.34068756035369 H 0.0 **** 0.06
13560 H 26.88175724259534 98.1438749708753 91.78810120456704 H 0.0 **** 0.06
13561 C 86.3689584616887 15.640702958837466 80.0264099803938 C 0.0 **** -0.24
13562 H 86.3388062146546 16.664617711938774 79.6523001284109 H 0.0 **** 0.06
13563 H 85.39796333131508 15.379488949247218 80.44836904454277 H 0.0 **** 0.06
13564 H 87.13441166064045 15.558189168731815 80.79754715926856 H 0.0 **** 0.06
13565 H 86.6029369296369 14.961439123717867 79.20697151162216 H 0.0 **** 0.06
13566 C 34.78389783382825 59.07098232415734 2.1564017988948487 C 0.0 **** -0.24
13567 H 34.611804387008604 58.95741332818061 1.0857241298082219 H 0.0 **** 0.06
13568 H 35.48585736659177 59.888885208026466 2.3261383760816976 H 0.0 **** 0.06
13569 H 35.19896818319329 58.1461620936835 2.5569062907524307 H 0.0 **** 0.06
13570 H 33.840423230524834 59.29160105429815 2.6544205715845166 H 0.0 **** 0.06
13571 C 10.402312807081415 98.89353440087282 89.10660814693094 C 0.0 **** -0.24
13572 H 9.77748392840877 99.11436783541731 89.9713862248048 H 0.0 **** 0.06
13573 H 10.173725424376812 97.89308841172996 88.73878161972311 H 0.0 **** 0.06
13574 H 11.45257943263978 98.94442171423364 89.39431323662451 H 0.0 **** 0.06
13575 H 10.205087529362714 99.6228413047044 88.32007499580456 H 0.0 **** 0.06
13576 C 80.65759058141337 45.96518466815638 59.89896906173024 C 0.0 **** -0.24
13577 H 81.44389337233603 46.62656810845101 59.536648042025426 H 0.0 **** 0.06
13578 H 79.77304996417632 46.55361117501539 60.14421563569655 H 0.0 **** 0.06
13579 H 81.00473120911487 45.4426428262108 60.79032595655892 H 0.0 **** 0.06
13580 H 80.40834049878575 45.23924948861361 59.12573677598691 H 0.0 **** 0.06
13581 C 55.06340743518751 21.04625649856297 21.5441986604701 C 0.0 **** -0.24
13582 H 56.15063216786441 20.97879801837186 21.502098135714164 H 0.0 **** 0.06
13583 H 54.64677923471866 20.82076121955123 20.56227119252992 H 0.0 **** 0.06
13584 H 54.773441753827164 22.054988394650195 21.838609227036955 H 0.0 **** 0.06
13585 H 54.68320844960537 20.33137980146236 22.273785349696368 H 0.0 **** 0.06
13586 C 84.24509698398487 49.87338703387604 74.14049812134219 C 0.0 **** -0.24
13587 H 83.42739643089439 49.16452418257866 74.01218231172665 H 0.0 **** 0.06
13588 H 83.94884414987536 50.84489477188089 73.74420693384893 H 0.0 **** 0.06
13589 H 85.12414131038204 49.51518382053556 73.60577185036513 H 0.0 **** 0.06
13590 H 84.47961171240712 49.97014156048988 75.20047458432497 H 0.0 **** 0.06
13591 C 27.38364306723153 104.71371667230704 39.68260674658774 C 0.0 **** -0.24
13592 H 27.193696246141315 105.44770550973413 40.46469959570851 H 0.0 **** 0.06
13593 H 26.494293616103676 104.60573867955924 39.06136119559409 H 0.0 **** 0.06
13594 H 27.62767037886516 103.75386576678017 40.13809728248975 H 0.0 **** 0.06
13595 H 28.21974387790624 105.04651800619689 39.06674762314998 H 0.0 **** 0.06
13596 C 86.05620410666913 9.164258615632548 33.63249946897426 C 0.0 **** -0.24
13597 H 86.50384137707442 8.21578013907724 33.92963440311033 H 0.0 **** 0.06
13598 H 85.79874937003206 9.128484019340448 32.57350136356126 H 0.0 **** 0.06
13599 H 86.7680762418448 9.971002110601148 33.805943074466256 H 0.0 **** 0.06
13600 H 85.15574108678334 9.340341133358507 34.22026299906199 H 0.0 **** 0.06
13601 C 4.8284352450448065 32.5217379775369 101.59714022044659 C 0.0 **** -0.24
13602 H 5.629079558956965 32.65824139339796 102.32449586614723 H 0.0 **** 0.06
13603 H 4.714729581487447 31.459968300272948 101.37741106200627 H 0.0 **** 0.06
13604 H 5.075325387883856 33.058120822374775 100.6803679172877 H 0.0 **** 0.06
13605 H 3.8965500905014387 32.91166276371034 102.0059144877257 H 0.0 **** 0.06
13606 C 105.20385970735391 104.91944201835089 80.01402704536467 C 0.0 **** -0.24
13607 H 106.02922154042359 105.59055723358905 80.25082632902199 H 0.0 **** 0.06
13608 H 104.57923973787182 105.37015331352049 79.24233995778528 H 0.0 **** 0.06
13609 H 104.60791690762036 104.74697997517123 80.90986224146249 H 0.0 **** 0.06
13610 H 105.6003640904135 103.96998407704167 79.65253893067677 H 0.0 **** 0.06
13611 C 20.132048045366787 16.173199307990558 3.4348559118602964 C 0.0 **** -0.24
13612 H 19.734317466112202 15.965482813177005 4.427792421674184 H 0.0 **** 0.06
13613 H 21.147208898498377 16.561136334679162 3.523275637936649 H 0.0 **** 0.06
13614 H 19.5026050363266 16.912833469534263 2.9391316396777256 H 0.0 **** 0.06
13615 H 20.143274138145784 15.254617286413009 2.8483512292465605 H 0.0 **** 0.06
13616 C 26.39272829515815 56.43346739246124 15.015785441438084 C 0.0 **** -0.24
13617 H 27.193598612117825 56.37105488137912 15.75210608586201 H 0.0 **** 0.06
13618 H 25.946508155227164 57.427822537482825 15.046202060945859 H 0.0 **** 0.06
13619 H 25.631521913340123 55.686268174492376 15.241895846885654 H 0.0 **** 0.06
13620 H 26.799802752557852 56.24768237522585 14.021028135633117 H 0.0 **** 0.06
13621 C 74.19394969193439 80.4293922297681 61.95436102621423 C 0.0 **** -0.24
13622 H 73.20865859266723 80.55841851795691 61.50673019516253 H 0.0 **** 0.06
13623 H 74.12739170375221 79.72577661392268 62.78436272541185 H 0.0 **** 0.06
13624 H 74.55578756149987 81.39034515085075 62.31985595034794 H 0.0 **** 0.06
13625 H 74.88513002412463 80.04345645206274 61.20492988105437 H 0.0 **** 0.06
13626 C 91.65881363858067 60.60714163934139 101.07666641687679 C 0.0 **** -0.24
13627 H 90.60654270773138 60.40441525716133 101.27627757534438 H 0.0 **** 0.06
13628 H 92.00496593272614 61.407905465728305 101.73076169043819 H 0.0 **** 0.06
13629 H 91.7794471611788 60.90916768828967 100.03627152528495 H 0.0 **** 0.06
13630 H 92.24334310661241 59.70675425938384 101.26434580025935 H 0.0 **** 0.06
13631 C 27.371567296737396 73.01661102070591 62.91024441163941 C 0.0 **** -0.24
13632 H 27.494357183781347 72.00028527716046 63.28561805305651 H 0.0 **** 0.06
13633 H 27.99749597512769 73.69593748599814 63.48969379961457 H 0.0 **** 0.06
13634 H 26.327194180814786 73.31462674586146 63.00304598126998 H 0.0 **** 0.06
13635 H 27.668099137176824 73.053377956822 61.86205656508025 H 0.0 **** 0.06
13636 C 14.269331380872355 76.9913491321542 7.210000388393652 C 0.0 **** -0.24
13637 H 13.559259011022252 77.62176183163497 6.6744840217816375 H 0.0 **** 0.06
13638 H 14.113000240740195 75.94954121941129 6.929138177084525 H 0.0 **** 0.06
13639 H 14.118960216286368 77.1052420387965 8.28385589808893 H 0.0 **** 0.06
13640 H 15.285449493699634 77.28914668818041 6.951829338102144 H 0.0 **** 0.06
13641 C 53.424423476636264 72.50253266584704 97.76545955504247 C 0.0 **** -0.24
13642 H 52.86171262439723 73.03656515019452 97.00021941065523 H 0.0 **** 0.06
13643 H 52.732199410108024 72.04590186727145 98.47272319316362 H 0.0 **** 0.06
13644 H 54.07357957361546 73.2014577402911 98.29249635576271 H 0.0 **** 0.06
13645 H 54.029368138651535 71.72734778046517 97.29641904524858 H 0.0 **** 0.06
13646 C 14.378776641801778 61.15079107324502 39.564870494164076 C 0.0 **** -0.24
13647 H 15.307301410900635 61.64581324511538 39.85001349099049 H 0.0 **** 0.06
13648 H 13.978393174352675 60.60886190091516 40.42175179560469 H 0.0 **** 0.06
13649 H 14.575280973542021 60.4511921078234 38.75156851617873 H 0.0 **** 0.06
13650 H 13.655767237975141 61.8967912947402 39.23588911100276 H 0.0 **** 0.06
13651 C 66.80787219520333 105.67859540669866 57.314075992104044 C 0.0 **** -0.24
13652 H 66.93287880821461 105.75251061474422 56.23387897887448 H 0.0 **** 0.06
13653 H 67.10648878298686 106.61884319488931 57.778626291811555 H 0.0 **** 0.06
13654 H 67.4292102672162 104.86991667438707 57.69734399342869 H 0.0 **** 0.06
13655 H 65.76177511860742 105.47511951214327 57.54563209958496 H 0.0 **** 0.06
13656 C 83.39441523299682 1.58239404768905 106.10209132867546 C 0.0 **** -0.24
13657 H 83.10529197796527 0.5400470239000299 105.95990752629206 H 0.0 **** 0.06
13658 H 84.44549587267969 1.706332945936623 105.84181583008794 H 0.0 **** 0.06
13659 H 83.24317554488852 1.8608816299081639 107.14559551509271 H 0.0 **** 0.06
13660 H 82.78273740034348 2.2185674811533573 105.4636994263455 H 0.0 **** 0.06
13661 C 20.128884549835107 31.182668572129643 74.10829920977051 C 0.0 **** -0.24
13662 H 20.356623582523923 31.67868290843836 75.05184858422649 H 0.0 **** 0.06
13663 H 20.50916334967235 31.78319423879867 73.28105696409213 H 0.0 **** 0.06
13664 H 19.049715152704266 31.06918522637946 74.00822612625117 H 0.0 **** 0.06
13665 H 20.60070071692519 30.20104589357814 74.09135654131438 H 0.0 **** 0.06
13666 C 22.27890675052158 74.37192052432057 23.753227962390014 C 0.0 **** -0.24
13667 H 22.247420007525974 73.66179403935101 24.57905762345507 H 0.0 **** 0.06
13668 H 22.209805453160552 73.83213949820262 22.80746780418329 H 0.0 **** 0.06
13669 H 23.216076836436315 74.92786117451729 23.78778156535637 H 0.0 **** 0.06
13670 H 21.442209428884517 75.06476194431377 23.83775621865192 H 0.0 **** 0.06
13671 C 79.78535037417491 77.24943591220364 0.9387804863954727 C 0.0 **** -0.24
13672 H 79.48635895278342 76.69227946363623 1.826886645426356 H 0.0 **** 0.06
13673 H 80.33137062091191 76.58990502858046 0.2640912088739924 H 0.0 **** 0.06
13674 H 80.42542879150425 78.0814058743357 1.2307209992678736 H 0.0 **** 0.06
13675 H 78.89816957569134 77.6318967260469 0.4343732603562387 H 0.0 **** 0.06
13676 C 78.09717266949318 59.26106775163393 48.51724179332285 C 0.0 **** -0.24
13677 H 78.23813226469238 58.18141788220506 48.45559509830923 H 0.0 **** 0.06
13678 H 77.25705667950508 59.480184472472345 49.17647369993358 H 0.0 **** 0.06
13679 H 77.89321687058133 59.6582494398294 47.523961698328776 H 0.0 **** 0.06
13680 H 79.00125834265809 59.722416860625145 48.91494748278268 H 0.0 **** 0.06
13681 C 34.00383801030427 77.74100973752678 3.9691530630413325 C 0.0 **** -0.24
13682 H 34.786408008684994 78.18342210578547 3.353172400111589 H 0.0 **** 0.06
13683 H 33.05168798170114 77.79726081443218 3.4429147318871287 H 0.0 **** 0.06
13684 H 33.93214526725455 78.28560421975615 4.911132230174601 H 0.0 **** 0.06
13685 H 34.247270290993455 76.69718706515997 4.171130117442715 H 0.0 **** 0.06
13686 C 30.083464989319737 69.18622521509786 94.50383900486564 C 0.0 **** -0.24
13687 H 30.805038003631978 68.37512803620137 94.40245117535639 H 0.0 **** 0.06
13688 H 30.446414076109733 69.9053159920122 95.23870032266657 H 0.0 **** 0.06
13689 H 29.126539744915135 68.78077034915218 94.8326856893376 H 0.0 **** 0.06
13690 H 29.95633434181616 69.68174418196018 93.54141734441768 H 0.0 **** 0.06
13691 C 29.374937562504215 13.081805316253451 7.426305005314575 C 0.0 **** -0.24
13692 H 30.30368365628135 13.652706547837738 7.4510886856615315 H 0.0 **** 0.06
13693 H 29.548942815796522 12.087874245083896 7.839462288277517 H 0.0 **** 0.06
13694 H 29.031039882141044 12.99318398299917 6.396007800463238 H 0.0 **** 0.06
13695 H 28.618142217950663 13.59431566735978 8.018820472674733 H 0.0 **** 0.06
13696 C 53.93929176683937 49.84369840615676 105.10332617105178 C 0.0 **** -0.24
13697 H 53.60407269921318 50.85434786943688 104.86895984583933 H 0.0 **** 0.06
13698 H 54.58614727593006 49.48127432482045 104.30336147356367 H 0.0 **** 0.06
13699 H 53.07438646423624 49.18752729409573 105.19714496041733 H 0.0 **** 0.06
13700 H 54.492737170993195 49.854255078597475 106.04180068034387 H 0.0 **** 0.06
13701 C 55.33062428827572 58.674497807954765 29.58853295147395 C 0.0 **** -0.24
13702 H 55.46070914955551 57.978483583367165 28.758872232489693 H 0.0 **** 0.06
13703 H 55.056002158802116 58.12052953362152 30.486258716528056 H 0.0 **** 0.06
13704 H 54.542703560785824 59.38698730508972 29.344692137682927 H 0.0 **** 0.06
13705 H 56.26379489849929 59.209155826233854 29.76244979434125 H 0.0 **** 0.06
13706 C 84.06257797420022 38.43044173405903 65.5657441324632 C 0.0 **** -0.24
13707 H 85.06717550224005 38.18559197907196 65.91004210409992 H 0.0 **** 0.06
13708 H 84.02500159454308 39.480044223691124 65.2735723468004 H 0.0 **** 0.06
13709 H 83.34946587129417 38.251577129769245 66.37176546313174 H 0.0 **** 0.06
13710 H 83.80858092746922 37.80521466759561 64.71068784709477 H 0.0 **** 0.06
13711 C 99.1141622722624 69.02531463949015 38.68149556264629 C 0.0 **** -0.24
13712 H 98.15703353597429 69.08627825401516 38.16461291112674 H 0.0 **** 0.06
13713 H 99.42236423837052 70.02326884295826 38.993736938247906 H 0.0 **** 0.06
13714 H 99.86351284439209 68.60648714582453 38.01062381064122 H 0.0 **** 0.06
13715 H 99.01264330963691 68.38530990106244 39.557899315130584 H 0.0 **** 0.06
13716 C 48.954075540924805 106.82864397978315 63.032909061167075 C 0.0 **** -0.24
13717 H 49.394576474175324 106.19252623712809 62.265325943922164 H 0.0 **** 0.06
13718 H 48.07194824308846 106.3410095725193 63.44728666849129 H 0.0 **** 0.06
13719 H 48.66905473956791 107.78481334455395 62.59326940517599 H 0.0 **** 0.06
13720 H 49.6834307285302 106.99707030311986 63.82673171182665 H 0.0 **** 0.06
13721 C 83.81814815190202 98.91326468464887 16.252494592910452 C 0.0 **** -0.24
13722 H 83.37171889424613 99.54946806551101 15.48842530809867 H 0.0 **** 0.06
13723 H 84.75591848886981 98.50032978971332 15.878228160454526 H 0.0 **** 0.06
13724 H 83.13366075925768 98.09985354953818 16.494525729749938 H 0.0 **** 0.06
13725 H 84.01343359517463 99.50276172487044 17.148886020364245 H 0.0 **** 0.06
13726 C 72.5873157703756 39.641016087411856 6.294077043628107 C 0.0 **** -0.24
13727 H 72.33495756471348 40.24858412266181 7.163792041578489 H 0.0 **** 0.06
13728 H 73.6163777925488 39.29156066469628 6.381718358094986 H 0.0 **** 0.06
13729 H 72.48231340727625 40.24024609699421 5.3906886888178605 H 0.0 **** 0.06
13730 H 71.91493908018145 38.78396795280457 6.242445238559711 H 0.0 **** 0.06
13731 C 78.85871980706523 59.51154856135693 1.2641159165861966 C 0.0 **** -0.24
13732 H 78.31205328134331 59.08681947687106 2.1068096214154757 H 0.0 **** 0.06
13733 H 79.13052949034557 58.71619617274263 0.5702609086950785 H 0.0 **** 0.06
13734 H 79.76245805613284 60.00117277316514 1.627909881245401 H 0.0 **** 0.06
13735 H 78.22962096033054 60.23984788231087 0.7535560375942705 H 0.0 **** 0.06
13736 C 40.08630387268187 27.517036661252618 10.919134214566668 C 0.0 **** -0.24
13737 H 40.659851719849655 27.70878495324351 10.012655237552138 H 0.0 **** 0.06
13738 H 40.39401864508828 26.563333947882086 11.34889984719507 H 0.0 **** 0.06
13739 H 39.023504265795566 27.48044165460213 10.675662238488457 H 0.0 **** 0.06
13740 H 40.26616692837149 28.3153740295418 11.638928227308043 H 0.0 **** 0.06
13741 C 93.51325361840311 80.26362978606569 72.69258874839514 C 0.0 **** -0.24
13742 H 94.21786010910057 80.49413100469732 73.4916022558638 H 0.0 **** 0.06
13743 H 93.21957379440633 79.21552221175915 72.76058463582498 H 0.0 **** 0.06
13744 H 93.98583172686367 80.44697302022723 71.7279396572329 H 0.0 **** 0.06
13745 H 92.63170366525658 80.8958735906203 72.79225368106191 H 0.0 **** 0.06
13746 C 5.8268603442370335 63.23147361523678 24.292665650656577 C 0.0 **** -0.24
13747 H 5.703270777178931 63.76936024561513 23.35262346701855 H 0.0 **** 0.06
13748 H 6.803375822658559 62.74488910761073 24.30666054175519 H 0.0 **** 0.06
13749 H 5.0435476968968675 62.47958775625625 24.386599893160447 H 0.0 **** 0.06
13750 H 5.759883260152666 63.9333033849943 25.12407274729032 H 0.0 **** 0.06
13751 C 92.45553206373285 60.23742364673808 80.62025076477846 C 0.0 **** -0.24
13752 H 92.37553716092441 60.36949253195979 79.54173359595063 H 0.0 **** 0.06
13753 H 93.43893191564021 59.83391767723515 80.86502913326831 H 0.0 **** 0.06
13754 H 91.68375037944713 59.546943035063435 80.96020996594166 H 0.0 **** 0.06
13755 H 92.32450124075066 61.200052845517746 81.1144082825374 H 0.0 **** 0.06
13756 C 81.11648983288964 43.89137246535006 33.657076268329064 C 0.0 **** -0.24
13757 H 81.2262993928297 43.12529488744383 32.88942874657337 H 0.0 **** 0.06
13758 H 82.04592235442581 44.45583979915287 33.74251397036812 H 0.0 **** 0.06
13759 H 80.88979756064006 43.418821407522444 34.61325347920851 H 0.0 **** 0.06
13760 H 80.30621010990026 44.56614381216363 33.38379795626534 H 0.0 **** 0.06
13761 C 101.08490369481825 52.27119957060202 62.704973529278845 C 0.0 **** -0.24
13762 H 100.02532244103077 52.30327832078123 62.45049711393048 H 0.0 **** 0.06
13763 H 101.67912180394507 52.42672252832162 61.803655479284956 H 0.0 **** 0.06
13764 H 101.32556513083762 51.29889614891249 63.1357505848038 H 0.0 **** 0.06
13765 H 101.30911536240347 53.05471955780021 63.42815692375714 H 0.0 **** 0.06
13766 C 103.58375354725106 91.23452586693965 8.171059182553236 C 0.0 **** -0.24
13767 H 102.83535691603431 90.4751436031987 8.397635365888874 H 0.0 **** 0.06
13768 H 103.8261635561863 91.78738458037908 9.078289202572904 H 0.0 **** 0.06
13769 H 103.1898191480457 91.91947042164934 7.420271363413605 H 0.0 **** 0.06
13770 H 104.48315584549827 90.75337872617476 7.786900832900628 H 0.0 **** 0.06
13771 C 11.654340919395395 80.2962395615586 50.8614100411028 C 0.0 **** -0.24
13772 H 10.740681682181375 80.8747342147231 50.72548567730652 H 0.0 **** 0.06
13773 H 11.754488480434077 80.01804866645341 51.91019551271694 H 0.0 **** 0.06
13774 H 12.512060025280334 80.89709517250066 50.55956543796242 H 0.0 **** 0.06
13775 H 11.607460397384287 79.39533210768758 50.24872273518187 H 0.0 **** 0.06
13776 C 70.28567924308012 96.66866050187662 103.87092532437515 C 0.0 **** -0.24
13777 H 70.87617135577378 95.91229313695351 103.3543799170082 H 0.0 **** 0.06
13778 H 70.52764867543709 96.65549683633003 104.93405714075851 H 0.0 **** 0.06
13779 H 69.22557105763713 96.4563910075043 103.73695538054659 H 0.0 **** 0.06
13780 H 70.51358626806388 97.65196328529146 103.4591307820478 H 0.0 **** 0.06
13781 C 10.646494953853932 8.64940419906989 47.219309683942186 C 0.0 **** -0.24
13782 H 11.581769310373176 8.76791239416225 46.67312075412542 H 0.0 **** 0.06
13783 H 10.3751682368775 9.5967382230542 47.68551862971219 H 0.0 **** 0.06
13784 H 10.76975479209321 7.887070326837042 47.989801652970925 H 0.0 **** 0.06
13785 H 9.858866678041409 8.344781518101415 46.52956011654413 H 0.0 **** 0.06
13786 C 83.26989394780423 79.34148317466719 11.465527880171408 C 0.0 **** -0.24
13787 H 83.02883011473207 78.2948001978275 11.653162409774467 H 0.0 **** 0.06
13788 H 83.57588356648458 79.46198713779961 10.42571014910385 H 0.0 **** 0.06
13789 H 84.08274104974561 79.65000563323491 12.122747156194663 H 0.0 **** 0.06
13790 H 82.39142826463927 79.95679391226048 11.660623906192257 H 0.0 **** 0.06
13791 C 67.50983590919628 74.0778977373231 6.888397653126759 C 0.0 **** -0.24
13792 H 67.74210266999457 73.1446217726615 7.401011362936799 H 0.0 **** 0.06
13793 H 67.3181805118852 73.87601065363607 5.834376999923606 H 0.0 **** 0.06
13794 H 68.3527760295248 74.76265341446016 6.980513423789404 H 0.0 **** 0.06
13795 H 66.62525600596298 74.52872889107174 7.339628669176392 H 0.0 **** 0.06
13796 C 97.28322082392204 12.734855224321876 9.806996377345286 C 0.0 **** -0.24
13797 H 96.39139737864008 12.965964101723614 9.22393603319452 H 0.0 **** 0.06
13798 H 96.9887116716235 12.367830013586072 10.790588568111929 H 0.0 **** 0.06
13799 H 97.8861414570101 13.635457114494642 9.92054647514621 H 0.0 **** 0.06
13800 H 97.86479310085674 11.968928590420418 9.292639646366496 H 0.0 **** 0.06
13801 C 75.6604830377932 95.59606033766008 50.338360931414684 C 0.0 **** -0.24
13802 H 74.86911660710433 95.12836046930576 50.92400733276145 H 0.0 **** 0.06
13803 H 75.21711413370272 96.2258564353244 49.56719779125851 H 0.0 **** 0.06
13804 H 76.27058684377113 94.82335174932754 49.87029309009213 H 0.0 **** 0.06
13805 H 76.28426030426277 96.20630332815679 50.99231136508044 H 0.0 **** 0.06
13806 C 30.758680239776737 83.3505057100945 17.715911210685363 C 0.0 **** -0.24
13807 H 31.05862029992963 83.90943606024105 18.602493719406716 H 0.0 **** 0.06
13808 H 29.69617546637437 83.11182714826349 17.779581787844197 H 0.0 **** 0.06
13809 H 31.33574287203669 82.42875653618728 17.656272317518145 H 0.0 **** 0.06
13810 H 30.9422879354442 83.95362094538527 16.826968628284533 H 0.0 **** 0.06
13811 C 40.92380793011341 68.47679159058453 28.37222541740062 C 0.0 **** -0.24
13812 H 41.82426074196697 67.94831719412917 28.05900463579633 H 0.0 **** 0.06
13813 H 40.8210872781101 69.39417641815089 27.793262363159425 H 0.0 **** 0.06
13814 H 40.99682384413117 68.72154429897911 29.43223510131167 H 0.0 **** 0.06
13815 H 40.05379419855629 67.84171501850625 28.205080074938603 H 0.0 **** 0.06
13816 C 39.35123172456986 31.009674248633758 14.293082355413702 C 0.0 **** -0.24
13817 H 39.80628064135482 31.916214122856786 14.695621517314862 H 0.0 **** 0.06
13818 H 38.334328732280596 31.228944110215423 13.967890518227392 H 0.0 **** 0.06
13819 H 39.329124529153376 30.241403147651056 15.06676869407066 H 0.0 **** 0.06
13820 H 39.93650115807202 30.656369452534932 13.445108864539407 H 0.0 **** 0.06
13821 C 100.68081314474861 95.34698611278532 36.59469961976632 C 0.0 **** -0.24
13822 H 99.7765741740411 95.52205474486732 36.01128588042178 H 0.0 **** 0.06
13823 H 101.0415373801153 96.29296548599586 36.99797711364434 H 0.0 **** 0.06
13824 H 101.44592770816118 94.90770599106963 35.954786051016924 H 0.0 **** 0.06
13825 H 100.45637989070094 94.6638254411472 37.41456971437685 H 0.0 **** 0.06
13826 C 29.75452691682375 75.10799818372635 80.80442217110337 C 0.0 **** -0.24
13827 H 29.6625337413369 76.06005764146454 81.32648894946254 H 0.0 **** 0.06
13828 H 30.16547579613625 75.27885021533206 79.80818754914768 H 0.0 **** 0.06
13829 H 28.771908172437648 74.64362241827837 80.71782375496979 H 0.0 **** 0.06
13830 H 30.41963636385509 74.4497517450597 81.36350782004617 H 0.0 **** 0.06
13831 C 43.5386617231857 76.07005126594578 80.580040103789 C 0.0 **** -0.24
13832 H 42.53495432177078 76.42678968873616 80.80934300175758 H 0.0 **** 0.06
13833 H 44.18167219176391 76.9189244570515 80.34612434868973 H 0.0 **** 0.06
13834 H 43.49779188642012 75.39880928236886 79.72219771474042 H 0.0 **** 0.06
13835 H 43.94029649002843 75.5359310020427 81.44078265299862 H 0.0 **** 0.06
13836 C 97.1749568471223 71.02716542190575 45.98859096899497 C 0.0 **** -0.24
13837 H 97.38833470016516 71.687373377663 46.82897423474799 H 0.0 **** 0.06
13838 H 96.53432707504828 70.20982678507232 46.32192986925335 H 0.0 **** 0.06
13839 H 98.10879680658093 70.62221207411267 45.598313586371454 H 0.0 **** 0.06
13840 H 96.6676617259003 71.59031403163095 45.20454054838267 H 0.0 **** 0.06
13841 C 4.569115852005723 73.21197032551017 101.03440169804725 C 0.0 **** -0.24
13842 H 4.509964508929784 74.29715103979738 100.95459809680116 H 0.0 **** 0.06
13843 H 4.604196834327041 72.92617551151491 102.0861604167832 H 0.0 **** 0.06
13844 H 5.469684212079443 72.85901040421155 100.53155614878187 H 0.0 **** 0.06
13845 H 3.692877778493198 72.76462447582168 100.56558593677826 H 0.0 **** 0.06
13846 C 24.87980925660048 53.08783925452087 13.439074719581896 C 0.0 **** -0.24
13847 H 25.467289558473396 53.15128707566902 14.354761322578355 H 0.0 **** 0.06
13848 H 25.52207485168111 53.287701257789536 12.581525432229355 H 0.0 **** 0.06
13849 H 24.0770634939164 53.82499007163301 13.47158094904232 H 0.0 **** 0.06
13850 H 24.453648002408613 52.088993098856974 13.350071293953476 H 0.0 **** 0.06
13851 C 61.46510888016192 41.86915633537717 23.612087094576935 C 0.0 **** -0.24
13852 H 61.02686855773456 40.88849958534786 23.425449779229552 H 0.0 **** 0.06
13853 H 61.248259382535 42.174332935495784 24.63538138649315 H 0.0 **** 0.06
13854 H 61.04134994664622 42.59435324102503 22.918256088170978 H 0.0 **** 0.06
13855 H 62.545223429576225 41.816721307263606 23.4693568876676 H 0.0 **** 0.06
13856 C 15.504049825815756 83.84048095533277 60.91213301343694 C 0.0 **** -0.24
13857 H 14.531719883173679 83.88575824667686 61.401585879256686 H 0.0 **** 0.06
13858 H 15.767606565916196 82.79983753267753 60.72350689304983 H 0.0 **** 0.06
13859 H 16.256339539650554 84.29547167257593 61.55687510613865 H 0.0 **** 0.06
13860 H 15.460253021854896 84.38224103929181 59.96662911688557 H 0.0 **** 0.06
13861 C 57.43565056651818 62.11582174408056 53.23013206670316 C 0.0 **** -0.24
13862 H 56.77302340782461 62.78695633490503 53.77701261908396 H 0.0 **** 0.06
13863 H 58.4720472153889 62.41116030219675 53.399442188504 H 0.0 **** 0.06
13864 H 57.21117539731284 62.17247074611829 52.16474644580643 H 0.0 **** 0.06
13865 H 57.28638628826957 61.09395216685682 53.578671080098786 H 0.0 **** 0.06
13866 C 22.576222817690933 34.045216064210024 82.07015762449493 C 0.0 **** -0.24
13867 H 23.11571070515123 33.951279241494404 81.1275116591313 H 0.0 **** 0.06
13868 H 22.98694481560827 33.34340581343997 82.79550270459191 H 0.0 **** 0.06
13869 H 21.52043914791639 33.82575251030909 81.90832641227325 H 0.0 **** 0.06
13870 H 22.68188817448342 35.06236255854614 82.44817425621068 H 0.0 **** 0.06
13871 C 73.14807790497292 93.26539227349359 54.50952909832683 C 0.0 **** -0.24
13872 H 73.7712821841635 93.98617453378179 55.03869925910285 H 0.0 **** 0.06
13873 H 73.41237584752727 93.26586087861722 53.45160181845339 H 0.0 **** 0.06
13874 H 72.0990651442227 93.5401876175231 54.62255777693521 H 0.0 **** 0.06
13875 H 73.31099615713967 92.27102615780362 54.924814979348476 H 0.0 **** 0.06
13876 C 20.085932466995928 22.11828231256849 49.53512973507423 C 0.0 **** -0.24
13877 H 19.855075040559313 22.76372926484113 50.382636543656616 H 0.0 **** 0.06
13878 H 20.647404443003268 21.250011822935956 49.88181163669089 H 0.0 **** 0.06
13879 H 20.683599097357728 22.672262198204667 48.8104252108195 H 0.0 **** 0.06
13880 H 19.159110251534173 21.78882051756128 49.065657470991134 H 0.0 **** 0.06
13881 C 54.42521039162074 0.293084240082635 36.4459198586606 C 0.0 **** -0.24
13882 H 54.35700028429576 1.308392025320586 36.83534269572439 H 0.0 **** 0.06
13883 H 54.884753220765155 -0.35253213710166165 37.19498636767551 H 0.0 **** 0.06
13884 H 55.03416055004968 0.29137549327401757 35.54171827390593 H 0.0 **** 0.06
13885 H 53.42580412743231 -0.07410159086759904 36.212404559543046 H 0.0 **** 0.06
13886 C 2.460395805003472 58.65150852255732 15.431397102943947 C 0.0 **** -0.24
13887 H 3.286447975831237 59.15614608384959 14.930362724918268 H 0.0 **** 0.06
13888 H 1.9279262566528672 58.02583143839098 14.714720678356628 H 0.0 **** 0.06
13889 H 1.7770138464907603 59.39430753253228 15.843267774960964 H 0.0 **** 0.06
13890 H 2.849951627888217 58.03050422383566 16.237845869642456 H 0.0 **** 0.06
13891 C 47.45042093006202 70.60287616713944 84.39859593446783 C 0.0 **** -0.24
13892 H 48.51271599452997 70.84361115774267 84.35885221765398 H 0.0 **** 0.06
13893 H 47.27455237472688 69.65082710227206 83.8994081306003 H 0.0 **** 0.06
13894 H 46.881949303942406 71.38690233102719 83.89869626855199 H 0.0 **** 0.06
13895 H 47.1330753328113 70.53214550004266 85.43959579578978 H 0.0 **** 0.06
13896 C 99.37989824630131 20.555739071110445 49.264328592726 C 0.0 **** -0.24
13897 H 99.14274958554478 21.48545573855858 49.78143219348749 H 0.0 **** 0.06
13898 H 99.13878126847317 19.71078192898585 49.90865203530206 H 0.0 **** 0.06
13899 H 100.44351337544228 20.537011015977754 49.02169731985041 H 0.0 **** 0.06
13900 H 98.79707635744461 20.492074104487084 48.345639794644335 H 0.0 **** 0.06
13901 C 46.68731497427652 93.49716056480045 59.582236228919385 C 0.0 **** -0.24
13902 H 45.68487209719396 93.09997665374108 59.423964603019 H 0.0 **** 0.06
13903 H 47.062455623528024 93.1605468829757 60.548749774442754 H 0.0 **** 0.06
13904 H 46.652230474921936 94.5866420502197 59.565327775566054 H 0.0 **** 0.06
13905 H 47.34791113293909 93.14231234860551 58.791212106490576 H 0.0 **** 0.06
13906 C 2.5475181129195725 44.59897942694667 105.49620482208016 C 0.0 **** -0.24
13907 H 2.2759914907221725 45.50720777556228 106.0351958370142 H 0.0 **** 0.06
13908 H 1.7845004261376047 44.377233858436256 104.75044239787893 H 0.0 **** 0.06
13909 H 2.621302218943578 43.768646191560464 106.19969214176997 H 0.0 **** 0.06
13910 H 3.5094273114997208 44.74292839134091 105.00304851130936 H 0.0 **** 0.06
13911 C 61.013110459562114 88.51281070424855 45.8593840537211 C 0.0 **** -0.24
13912 H 60.516933423832114 89.48347058628784 45.872668271075725 H 0.0 **** 0.06
13913 H 61.60640476983369 88.4197357226634 44.950477812576395 H 0.0 **** 0.06
13914 H 60.262918904354535 87.7217653844466 45.887307087850076 H 0.0 **** 0.06
13915 H 61.66405742721986 88.42602140667246 46.729183661209646 H 0.0 **** 0.06
13916 C 75.34131981420992 26.47641501278622 33.38115361107208 C 0.0 **** -0.24
13917 H 75.39659723465392 25.56245965194819 33.97152439069712 H 0.0 **** 0.06
13918 H 76.21317206330657 27.097430108516335 33.589944589569185 H 0.0 **** 0.06
13919 H 74.43527129532053 27.02293297843829 33.64063934924576 H 0.0 **** 0.06
13920 H 75.32168365906847 26.223576972775334 32.32096821994433 H 0.0 **** 0.06
13921 C 20.726844095954846 86.96248575998021 73.16218675245348 C 0.0 **** -0.24
13922 H 20.82343141672925 87.0062601719614 74.24714684874237 H 0.0 **** 0.06
13923 H 19.677723378866347 87.07628324185583 72.88654816765049 H 0.0 **** 0.06
13924 H 21.095225158003075 86.00176400936465 72.80295312153683 H 0.0 **** 0.06
13925 H 21.31044139067768 87.76654965489627 72.71406271902507 H 0.0 **** 0.06
13926 C 94.55879017800635 41.823895627716524 60.40567607420258 C 0.0 **** -0.24
13927 H 95.28883436718547 42.14344132036666 61.149831147701704 H 0.0 **** 0.06
13928 H 94.8387025531512 42.220396951735154 59.42938641568126 H 0.0 **** 0.06
13929 H 93.5730725077189 42.196749859943736 60.68119564288004 H 0.0 **** 0.06
13930 H 94.53739815776126 40.734425151088544 60.3630472015427 H 0.0 **** 0.06
13931 C 78.03811344224725 31.8481865006284 57.01126298365433 C 0.0 **** -0.24
13932 H 78.60770431577069 32.51467364973519 56.36336574003501 H 0.0 **** 0.06
13933 H 77.02641749642487 31.73741929360284 56.62018795815 H 0.0 **** 0.06
13934 H 77.99598335861825 32.26728587694288 58.01646816906516 H 0.0 **** 0.06
13935 H 78.5229974528907 30.8726204769022 57.04517657591742 H 0.0 **** 0.06
13936 C 32.1748731231644 63.071359445397064 86.56119676763912 C 0.0 **** -0.24
13937 H 32.33655503024329 62.460276234680705 87.44936341396334 H 0.0 **** 0.06
13938 H 31.521847299441646 63.90737523445122 86.81002108987944 H 0.0 **** 0.06
13939 H 31.710537023427705 62.46489714434858 85.78369360844576 H 0.0 **** 0.06
13940 H 33.131185347512314 63.45060353000996 86.20325056131526 H 0.0 **** 0.06
13941 C 46.07451531638628 77.26929725242002 101.98393195317091 C 0.0 **** -0.24
13942 H 46.25537208795379 77.67430570609113 102.97963456477993 H 0.0 **** 0.06
13943 H 46.78805649027521 77.70186794642578 101.28092810946653 H 0.0 **** 0.06
13944 H 45.060793935819106 77.51588617130926 101.67063416287118 H 0.0 **** 0.06
13945 H 46.19566647670814 76.18673086248131 102.00483810553948 H 0.0 **** 0.06
13946 C 102.29541099423363 58.85151305806005 14.572075985762552 C 0.0 **** -0.24
13947 H 101.42521117556495 59.0442601427483 13.945566217714813 H 0.0 **** 0.06
13948 H 102.14583916564372 59.306056605707425 15.551084723278095 H 0.0 **** 0.06
13949 H 103.1816386650499 59.27938545429447 14.103253585549453 H 0.0 **** 0.06
13950 H 102.4289167326509 57.77596551886259 14.687477063279005 H 0.0 **** 0.06
13951 C 22.43024465946519 99.89020927869944 59.835419321451184 C 0.0 **** -0.24
13952 H 22.04524966735363 98.96224863235543 59.41179137863202 H 0.0 **** 0.06
13953 H 23.40059050566549 100.1175708958312 59.39194843709578 H 0.0 **** 0.06
13954 H 22.539672386420023 99.77884917201524 60.913794566014246 H 0.0 **** 0.06
13955 H 21.7344500492311 100.70253554845942 59.622789007628 H 0.0 **** 0.06
13956 C 69.28766607509102 82.3571488983802 6.409522167307115 C 0.0 **** -0.24
13957 H 68.5814476290635 83.1436742441102 6.144001766073506 H 0.0 **** 0.06
13958 H 69.72720802406495 82.57654501222834 7.382337108129475 H 0.0 **** 0.06
13959 H 70.07460755456347 82.30743214266225 5.656966482510292 H 0.0 **** 0.06
13960 H 68.76555767079495 81.40147404129638 6.452476480789974 H 0.0 **** 0.06
13961 C 44.07957413048402 7.674767587345002 97.46927313799992 C 0.0 **** -0.24
13962 H 43.14384479991759 8.100491599848112 97.1077190383102 H 0.0 **** 0.06
13963 H 44.91689022828763 8.172934328388124 96.97988434729163 H 0.0 **** 0.06
13964 H 44.1068051765578 6.609414373844004 97.24072620412241 H 0.0 **** 0.06
13965 H 44.15048990939667 7.818318535274159 98.54751095542017 H 0.0 **** 0.06
13966 C 61.59544250848435 47.20755189996079 36.46667317022124 C 0.0 **** -0.24
13967 H 60.7919743871675 46.90090181308902 37.136291273357216 H 0.0 **** 0.06
13968 H 61.461907073849915 48.2542599728606 36.194623221466315 H 0.0 **** 0.06
13969 H 61.57342750688784 46.5920364661142 35.56802599652616 H 0.0 **** 0.06
13970 H 62.55443140943473 47.08215259141059 36.97004682791629 H 0.0 **** 0.06
13971 C 35.92329404678378 37.37897494303317 62.9470197125148 C 0.0 **** -0.24
13972 H 36.6580702436853 37.36611773706747 62.142386061655586 H 0.0 **** 0.06
13973 H 36.406369731142604 37.68314507472198 63.875880922452495 H 0.0 **** 0.06
13974 H 35.497197017143606 36.38277745792706 63.066483537947505 H 0.0 **** 0.06
13975 H 35.1297136074956 38.08592611631303 62.702146485755975 H 0.0 **** 0.06
13976 C 83.14983783279344 5.492516378754026 30.881675480585045 C 0.0 **** -0.24
13977 H 84.15335000577188 5.667838683977118 31.269558350804004 H 0.0 **** 0.06
13978 H 82.4883773532133 6.294934293938908 31.208304061804597 H 0.0 **** 0.06
13979 H 82.77750862110096 4.538678724446791 31.25555300065281 H 0.0 **** 0.06
13980 H 83.18127209436253 5.469073028644736 29.79172086229198 H 0.0 **** 0.06
13981 C 92.41759428431958 37.21652599815829 68.29140738720423 C 0.0 **** -0.24
13982 H 93.24946027996751 36.51464917010611 68.36437091325007 H 0.0 **** 0.06
13983 H 91.7700978853687 36.92624790876002 67.46453635058901 H 0.0 **** 0.06
13984 H 92.80434294115793 38.22015882510951 68.11628370055985 H 0.0 **** 0.06
13985 H 91.84954690630435 37.203024484418535 69.22112807270167 H 0.0 **** 0.06
13986 C 42.71304466463281 80.16083658796276 87.90042380104494 C 0.0 **** -0.24
13987 H 43.16875661135718 80.9412953326999 88.50946769043439 H 0.0 **** 0.06
13988 H 41.66451667011404 80.04900571220742 88.17806862578708 H 0.0 **** 0.06
13989 H 43.23532027545577 79.21870411434156 88.06677972605534 H 0.0 **** 0.06
13990 H 42.782180036740755 80.43420756052916 86.8474687570739 H 0.0 **** 0.06
13991 C 28.75863485921026 47.030754990542135 24.578909981832084 C 0.0 **** -0.24
13992 H 29.46275783948112 47.14118905588171 23.753934300584888 H 0.0 **** 0.06
13993 H 28.883566778165296 47.860881967354146 25.275137665418185 H 0.0 **** 0.06
13994 H 28.9484398555719 46.09047846765162 25.09586433011671 H 0.0 **** 0.06
13995 H 27.740559134406812 47.033087999018335 24.189972882886366 H 0.0 **** 0.06
13996 C 63.13377852699398 106.82095512386294 15.941884042882954 C 0.0 **** -0.24
13997 H 63.49635014327788 106.45154307523907 16.90117350456734 H 0.0 **** 0.06
13998 H 62.327632831887115 107.5360271946225 16.10972866611007 H 0.0 **** 0.06
13999 H 62.76206270563506 105.98610130539453 15.348795430456505 H 0.0 **** 0.06
14000 H 63.9490869240214 107.310293289838 15.409564534886876 H 0.0 **** 0.06
14001 C 2.312690319179822 17.280623259313188 67.53434432989255 C 0.0 **** -0.24
14002 H 1.5553244305981337 17.071438718721936 66.77826001678685 H 0.0 **** 0.06
14003 H 3.186999714822548 16.653156282631812 67.35565725340061 H 0.0 **** 0.06
14004 H 1.907155186798633 17.06611458304303 68.52279967258798 H 0.0 **** 0.06
14005 H 2.6007522086726595 18.329792017186577 67.47933605046919 H 0.0 **** 0.06
14006 C 3.488201757167218 47.904329996405494 66.09313867569614 C 0.0 **** -0.24
14007 H 3.8002968363236675 47.358417977011015 66.98439033033901 H 0.0 **** 0.06
14008 H 3.6729568473380994 47.29270141987328 65.20980817897049 H 0.0 **** 0.06
14009 H 4.055221518470461 48.83183162368519 66.01883530015198 H 0.0 **** 0.06
14010 H 2.425004251458489 48.13256425267954 66.16103454264311 H 0.0 **** 0.06
14011 C 58.16909833140061 15.75462469556237 55.03002102681899 C 0.0 **** -0.24
14012 H 57.11723909469506 16.04070668487816 55.02904343582229 H 0.0 **** 0.06
14013 H 58.73402625105118 16.448793324876277 54.40775816229081 H 0.0 **** 0.06
14014 H 58.27036963017475 14.74521717473931 54.63284193202924 H 0.0 **** 0.06
14015 H 58.55201672207759 15.785048460661102 56.049503028766665 H 0.0 **** 0.06
14016 C 60.6922407528796 85.70338108294777 42.21673513292495 C 0.0 **** -0.24
14017 H 59.9158372495831 85.68014463355212 41.452619085506115 H 0.0 **** 0.06
14018 H 61.54361413350594 86.27916231429373 41.85279546709569 H 0.0 **** 0.06
14019 H 61.01077770637663 84.68559440472484 42.44234586230908 H 0.0 **** 0.06
14020 H 60.29842766186501 86.16953261803428 43.12021879576804 H 0.0 **** 0.06
14021 C 48.57557900360544 79.56988248264813 25.304384583888776 C 0.0 **** -0.24
14022 H 48.140592008787245 78.65863351806198 24.892520045915376 H 0.0 **** 0.06
14023 H 48.82556979870389 80.2514995839066 24.491392926727173 H 0.0 **** 0.06
14024 H 49.478379837397014 79.32079105305147 25.862206086487106 H 0.0 **** 0.06
14025 H 47.85694532595063 80.04590153980598 25.971406468580966 H 0.0 **** 0.06
14026 C 9.443463468326854 2.8353700886453908 80.67035493306986 C 0.0 **** -0.24
14027 H 10.329716963731073 2.2288929114523626 80.4843418379354 H 0.0 **** 0.06
14028 H 9.528854167612536 3.3117447490086533 81.64739707774424 H 0.0 **** 0.06
14029 H 8.558302228569971 2.1994542121569793 80.65237465317699 H 0.0 **** 0.06
14030 H 9.357422665511166 3.6006673879455775 79.89881767361703 H 0.0 **** 0.06
14031 C 28.25192496447579 63.69243776329154 86.7337065050418 C 0.0 **** -0.24
14032 H 28.54505416012921 63.06136243501163 87.57376959441092 H 0.0 **** 0.06
14033 H 28.695491195548584 64.6808142218832 86.85188289481752 H 0.0 **** 0.06
14034 H 27.16610223616226 63.78020473499454 86.70763667599894 H 0.0 **** 0.06
14035 H 28.602771010965057 63.24483015499797 85.80410542664245 H 0.0 **** 0.06
14036 C 106.89460569483087 8.254741529125937 37.41021636789521 C 0.0 **** -0.24
14037 H 107.43876339891533 9.094181895457979 37.84141227121324 H 0.0 **** 0.06
14038 H 106.99504798701658 7.384012642997945 38.059975067628535 H 0.0 **** 0.06
14039 H 107.30244112502086 8.023553698866223 36.42630013897926 H 0.0 **** 0.06
14040 H 105.84005858794112 8.516732313460267 37.31432049451767 H 0.0 **** 0.06
14041 C 56.4028814476452 75.02327531537651 19.918847251098214 C 0.0 **** -0.24
14042 H 56.483385712010886 75.01644187745657 18.8321338363196 H 0.0 **** 0.06
14043 H 55.54889712674901 75.63264766826575 20.2167195055805 H 0.0 **** 0.06
14044 H 57.31411858331052 75.43960813807394 20.348005216836214 H 0.0 **** 0.06
14045 H 56.26483651461797 74.00312123212717 20.27905276934831 H 0.0 **** 0.06
14046 C 46.23737022553243 17.517204755024125 64.60392348434785 C 0.0 **** -0.24
14047 H 47.10019426501714 17.7543461913599 65.22605474625065 H 0.0 **** 0.06
14048 H 45.37951792667076 17.299689202734555 65.24008393335833 H 0.0 **** 0.06
14049 H 46.463022876669896 16.646990916447635 63.98687526742748 H 0.0 **** 0.06
14050 H 46.007957260004105 18.36843209821012 63.962328250782065 H 0.0 **** 0.06
14051 C 85.89814293828937 105.03738440433129 100.61724292779684 C 0.0 **** -0.24
14052 H 86.26031408282316 104.7520953960098 99.62936086604557 H 0.0 **** 0.06
14053 H 86.62556087078931 105.69427755898067 101.09455860877392 H 0.0 **** 0.06
14054 H 85.7596993123441 104.14376641193365 101.2256843341753 H 0.0 **** 0.06
14055 H 84.94641160631065 105.56095767373324 100.51757201279122 H 0.0 **** 0.06
14056 C 61.02554081488833 100.58843607963354 78.6712917323523 C 0.0 **** -0.24
14057 H 61.87775432429444 101.15746382291908 78.30133603915331 H 0.0 **** 0.06
14058 H 60.306241744804424 101.26745046699048 79.12855422910809 H 0.0 **** 0.06
14059 H 61.36590305419557 99.86590782593973 79.41332083843537 H 0.0 **** 0.06
14060 H 60.55293312372851 100.06224781513797 77.8416432475222 H 0.0 **** 0.06
14061 C 43.613446962143215 43.00858435694953 22.65131992222479 C 0.0 **** -0.24
14062 H 43.01337497642394 43.360902524867605 21.812341240940334 H 0.0 **** 0.06
14063 H 44.03475054448444 42.03244006970102 22.41097573144888 H 0.0 **** 0.06
14064 H 42.98471451835892 42.92427574762681 23.538220323251174 H 0.0 **** 0.06
14065 H 44.41982836754614 43.715916115213375 22.843422735946632 H 0.0 **** 0.06
14066 C 79.71522347207295 21.95898936847442 28.722714857801932 C 0.0 **** -0.24
14067 H 79.95268143192946 21.811379523304282 29.777240748783584 H 0.0 **** 0.06
14068 H 80.34669011903414 21.311685083405195 28.115012878764205 H 0.0 **** 0.06
14069 H 79.89282611478734 22.999808392824804 28.453069272002594 H 0.0 **** 0.06
14070 H 78.66761105455869 21.712995123514276 28.54951336578702 H 0.0 **** 0.06
14071 C 34.7805311864431 56.339808459660844 14.24880158175506 C 0.0 **** -0.24
14072 H 34.83491595190708 55.57080117448663 15.019602993651603 H 0.0 **** 0.06
14073 H 33.83753377474984 56.88015001532719 14.34040759248461 H 0.0 **** 0.06
14074 H 34.8395817908596 55.873826665631185 13.265335421406974 H 0.0 **** 0.06
14075 H 35.611588521355316 57.03513030275121 14.371679568766098 H 0.0 **** 0.06
14076 C 33.39378851043729 28.179206621688962 105.82678917753964 C 0.0 **** -0.24
14077 H 32.351413671435395 27.863650162209893 105.86308645842871 H 0.0 **** 0.06
14078 H 33.51830920981667 29.087646062060543 106.41727384918534 H 0.0 **** 0.06
14079 H 33.678685129866594 28.37646152703121 104.79353988218207 H 0.0 **** 0.06
14080 H 34.02652499290658 27.390868461267416 106.23456509193522 H 0.0 **** 0.06
14081 C 72.49892735885066 9.624869915901542 2.6113936779119484 C 0.0 **** -0.24
14082 H 72.89950417995232 9.556803547141755 1.6005396663507838 H 0.0 **** 0.06
14083 H 73.09418596828024 9.001770348312277 3.2799839058813234 H 0.0 **** 0.06
14084 H 71.4656820227978 9.27963294095207 2.617886379474072 H 0.0 **** 0.06
14085 H 72.53836248684144 10.660674963843462 2.9484062548651764 H 0.0 **** 0.06
14086 C 31.81262387175549 90.69109765682936 87.7991227797278 C 0.0 **** -0.24
14087 H 30.970366741922355 90.62272755557399 88.48848858883014 H 0.0 **** 0.06
14088 H 31.897609553764205 89.76084258827649 87.23666950379045 H 0.0 **** 0.06
14089 H 32.72907871718531 90.8611832857298 88.36301819757544 H 0.0 **** 0.06
14090 H 31.650189018787856 91.51941780986186 87.10985771743808 H 0.0 **** 0.06
14091 C 27.13959281885333 61.79197076943879 52.21994606076427 C 0.0 **** -0.24
14092 H 27.28356764527456 62.641498456226344 51.552893864190054 H 0.0 **** 0.06
14093 H 27.92801727349294 61.05964057127949 52.049978393459384 H 0.0 **** 0.06
14094 H 26.169474454359644 61.33516643098238 52.02161323421859 H 0.0 **** 0.06
14095 H 27.176138485529577 62.13236089997176 53.255200483456036 H 0.0 **** 0.06
14096 C 97.3480202667883 87.8038808610885 87.40134207880598 C 0.0 **** -0.24
14097 H 98.39735804585644 87.97465674148279 87.159477318608 H 0.0 **** 0.06
14098 H 97.26740890454695 87.41718751949716 88.41697082437732 H 0.0 **** 0.06
14099 H 96.9279288771749 87.08027283211007 86.7020778970174 H 0.0 **** 0.06
14100 H 96.80109188246817 88.74364191981347 87.32438620276208 H 0.0 **** 0.06
14101 C 9.79592011358423 8.074033369041302 22.733030759905038 C 0.0 **** -0.24
14102 H 8.989196800461798 7.408184747348457 23.039472947825058 H 0.0 **** 0.06
14103 H 10.571001931501343 8.083602215815347 23.49976170906259 H 0.0 **** 0.06
14104 H 9.403281881896902 9.081917314542608 22.598547014852105 H 0.0 **** 0.06
14105 H 10.219709376374453 7.720977058943788 21.792430605707615 H 0.0 **** 0.06
14106 C 6.605384495707872 95.57518093311633 17.00440209222336 C 0.0 **** -0.24
14107 H 7.626873287071165 95.6595679551577 16.634523526742726 H 0.0 **** 0.06
14108 H 6.621732916701751 95.41763865624516 18.083776429987495 H 0.0 **** 0.06
14109 H 6.112257597565378 94.73119216459236 16.521613784583963 H 0.0 **** 0.06
14110 H 6.059785125432654 96.49168105488845 16.779034444066184 H 0.0 **** 0.06
14111 C 56.43882488497252 8.51663790976022 58.43126429877748 C 0.0 **** -0.24
14112 H 56.10766061158813 9.555218744724868 58.40758273671855 H 0.0 **** 0.06
14113 H 56.76457457666362 8.26338278628782 59.44000691943069 H 0.0 **** 0.06
14114 H 57.26894526683469 8.384716629437321 57.73735246667411 H 0.0 **** 0.06
14115 H 55.615579448141034 7.8660296017322935 58.1403375465149 H 0.0 **** 0.06
14116 C 21.391368915591073 25.00565978358759 100.98334046321494 C 0.0 **** -0.24
14117 H 21.92479886543576 25.902449699701833 101.2973022565267 H 0.0 **** 0.06
14118 H 20.476007504673717 25.291014695842307 100.46452760086581 H 0.0 **** 0.06
14119 H 21.142122636017607 24.406549150797957 101.85858580221472 H 0.0 **** 0.06
14120 H 22.023239081443215 24.423490495407748 100.31206723101201 H 0.0 **** 0.06
14121 C 41.21959127316177 85.2209501232546 2.3006343669065927 C 0.0 **** -0.24
14122 H 40.428610105821974 85.84112499050018 2.721802520279482 H 0.0 **** 0.06
14123 H 40.94157511854394 84.91288989286669 1.2917390751127868 H 0.0 **** 0.06
14124 H 41.359797014979506 84.33758120244912 2.923893881891985 H 0.0 **** 0.06
14125 H 42.147452472387045 85.79069483032829 2.2637397131107093 H 0.0 **** 0.06
14126 C 49.99059448751717 34.38615542040222 51.31293607782871 C 0.0 **** -0.24
14127 H 49.07030431938756 33.82857275385018 51.488715236437145 H 0.0 **** 0.06
14128 H 50.7915982155817 33.69177402715994 51.056151557911676 H 0.0 **** 0.06
14129 H 50.260426714692585 34.93483760174436 52.21513291186662 H 0.0 **** 0.06
14130 H 49.83939715757339 35.086828443801664 50.49307493651747 H 0.0 **** 0.06
14131 C 59.824967731805 8.928149577686384 39.461610903742155 C 0.0 **** -0.24
14132 H 59.097850171189805 8.130816272034679 39.30894020019409 H 0.0 **** 0.06
14133 H 60.133664506068556 8.94150415612404 40.506947533056376 H 0.0 **** 0.06
14134 H 59.37258058140074 9.885037873376717 39.20388566449259 H 0.0 **** 0.06
14135 H 60.69339816991675 8.753495653701577 38.82781266395935 H 0.0 **** 0.06
14136 C 4.164169022768192 30.774685593170346 10.936055662330991 C 0.0 **** -0.24
14137 H 3.7322062456332503 30.03122933487853 10.265935769169497 H 0.0 **** 0.06
14138 H 3.3759364342166123 31.211315930520442 11.550902089628265 H 0.0 **** 0.06
14139 H 4.644273087282556 31.55775893202835 10.34925677221099 H 0.0 **** 0.06
14140 H 4.904333663186861 30.297651634056606 11.579301076879986 H 0.0 **** 0.06
14141 C 24.442023642477906 69.24035875899499 51.909741624183425 C 0.0 **** -0.24
14142 H 23.533388932877358 69.01029161112395 52.46623132315369 H 0.0 **** 0.06
14143 H 24.776901382037856 68.35003567677524 51.37711939914638 H 0.0 **** 0.06
14144 H 25.219226779775877 69.56311822485517 52.60230953209913 H 0.0 **** 0.06
14145 H 24.238336493846575 70.03750532149768 51.19495172548801 H 0.0 **** 0.06
14146 C 0.7631965799062357 102.31946501414394 38.771686219081516 C 0.0 **** -0.24
14147 H 0.5806050030393521 101.32329900347723 38.36971449858524 H 0.0 **** 0.06
14148 H 0.31184045634810786 102.40092982241615 39.76049855835291 H 0.0 **** 0.06
14149 H 0.3238682612516186 103.06519969026914 38.10830459491902 H 0.0 **** 0.06
14150 H 1.8378735195219917 102.48899338854908 38.84691500020682 H 0.0 **** 0.06
14151 C 56.38796203094883 70.01362633364513 92.83315666867901 C 0.0 **** -0.24
14152 H 56.13069448999095 70.02197893054463 91.77323146979961 H 0.0 **** 0.06
14153 H 57.030039340679814 70.86634929079106 93.0565309037612 H 0.0 **** 0.06
14154 H 56.91368852989105 69.0896367989024 93.07186705885397 H 0.0 **** 0.06
14155 H 55.47684158982624 70.07863634677864 93.42812217915764 H 0.0 **** 0.06
14156 C 63.753254181429995 56.272147566400974 36.71315809569832 C 0.0 **** -0.24
14157 H 62.80848316629083 56.63882240845311 36.31276583542752 H 0.0 **** 0.06
14158 H 63.70331674623705 56.25435669999246 37.802455347909145 H 0.0 **** 0.06
14159 H 64.56262199111559 56.931082526163095 36.3968904405277 H 0.0 **** 0.06
14160 H 63.938594822076496 55.26432863099495 36.34052075892917 H 0.0 **** 0.06
14161 C 18.841939494040275 37.70980164550397 25.231717382312866 C 0.0 **** -0.24
14162 H 19.085630429663638 36.76102378662017 25.709911919863856 H 0.0 **** 0.06
14163 H 19.107847085849812 38.53012601324326 25.89769767374841 H 0.0 **** 0.06
14164 H 17.773675103868754 37.74474920851745 25.018343156463175 H 0.0 **** 0.06
14165 H 19.40189846036799 37.800640960196006 24.30138311629537 H 0.0 **** 0.06
14166 C 61.60132685454256 45.57885530311431 8.525177729017884 C 0.0 **** -0.24
14167 H 62.32752396491729 45.497407473581056 9.334307349114184 H 0.0 **** 0.06
14168 H 61.951130593779965 45.005967453604306 7.666327586650212 H 0.0 **** 0.06
14169 H 61.48776970504491 46.625164649719984 8.242424816588581 H 0.0 **** 0.06
14170 H 60.640825590690014 45.18635513576229 8.858625827548039 H 0.0 **** 0.06
14171 C 73.88686002140648 45.99856573712344 106.3259813848851 C 0.0 **** -0.24
14172 H 73.82356708951164 46.84806597690772 107.00685002637682 H 0.0 **** 0.06
14173 H 73.65687382792461 45.08135399468296 106.8683075654994 H 0.0 **** 0.06
14174 H 74.89435440215503 45.9368360603454 105.91565323984409 H 0.0 **** 0.06
14175 H 73.17109712185292 46.12992700524171 105.51449978013387 H 0.0 **** 0.06
14176 C 53.72055916106319 29.076397460068307 33.879776621240865 C 0.0 **** -0.24
14177 H 53.73266962712131 28.375289566189565 34.714656728577125 H 0.0 **** 0.06
14178 H 53.92894706944435 28.541578172147425 32.9526878686209 H 0.0 **** 0.06
14179 H 54.4820938660838 29.841093475282648 34.03698560580125 H 0.0 **** 0.06
14180 H 52.74002634909431 29.54738182074604 33.81607569278873 H 0.0 **** 0.06
14181 C 66.80683519618049 83.71152599463073 52.2451385206852 C 0.0 **** -0.24
14182 H 66.76590008097418 84.41282960966731 51.41120488899264 H 0.0 **** 0.06
14183 H 65.79278418499956 83.44570469307371 52.545432272289304 H 0.0 **** 0.06
14184 H 67.32413060719881 84.1762625976516 53.08366937321159 H 0.0 **** 0.06
14185 H 67.34370337623301 82.81417287836052 51.93879457501157 H 0.0 **** 0.06
14186 C 105.25131655984026 2.3538187973852587 56.63836848558733 C 0.0 **** -0.24
14187 H 105.76794440533618 3.307305608869413 56.53149357067955 H 0.0 **** 0.06
14188 H 105.96526296768258 1.5386925821844102 56.516587831421695 H 0.0 **** 0.06
14189 H 104.47442103762211 2.2742437065532357 55.877634048758985 H 0.0 **** 0.06
14190 H 104.79763782871996 2.29503329193372 57.62775849148935 H 0.0 **** 0.06
14191 C 87.04140183781178 45.328355881435144 89.96259479651002 C 0.0 **** -0.24
14192 H 86.05585218491497 45.69678603439355 90.24803275952462 H 0.0 **** 0.06
14193 H 87.73077017296951 45.45296160742369 90.79779562781886 H 0.0 **** 0.06
14194 H 87.40497888135508 45.891990231008776 89.10365548563806 H 0.0 **** 0.06
14195 H 86.972788873509 44.2725959641871 89.70219525460203 H 0.0 **** 0.06
14196 C 2.1691209767795403 73.69507847059799 89.47524980699784 C 0.0 **** -0.24
14197 H 2.7049464516374506 73.30156561153666 88.61185802716969 H 0.0 **** 0.06
14198 H 2.7419710886472526 73.49051304110621 90.38071240859787 H 0.0 **** 0.06
14199 H 1.192460020409154 73.21618485940404 89.54679002585098 H 0.0 **** 0.06
14200 H 2.0387256213937466 74.77133928573424 89.36300717328956 H 0.0 **** 0.06
14201 C 91.86616254804107 4.7968332112806 12.291843368937915 C 0.0 **** -0.24
14202 H 92.65930508120525 4.278007973229492 12.830770107074219 H 0.0 **** 0.06
14203 H 91.24092564261453 5.341045100954673 13.000710780071635 H 0.0 **** 0.06
14204 H 91.25858919585464 4.070903092277376 11.752584862430366 H 0.0 **** 0.06
14205 H 92.30738965271391 5.498423624602523 11.583995055575189 H 0.0 **** 0.06
14206 C 71.94838880961503 83.02116126161398 38.047245023300576 C 0.0 **** -0.24
14207 H 72.0640712409766 83.8670437844561 37.37094334790547 H 0.0 **** 0.06
14208 H 70.90138869555612 82.71780688477261 38.07427519418924 H 0.0 **** 0.06
14209 H 72.26975387933169 83.30828341780239 39.048229062822 H 0.0 **** 0.06
14210 H 72.55844300355493 82.18911951965879 37.69501193719205 H 0.0 **** 0.06
14211 C 19.803807596751625 102.23749499269319 70.24975026965325 C 0.0 **** -0.24
14212 H 19.973358463308102 101.16029794257676 70.24457597278816 H 0.0 **** 0.06
14213 H 18.808648995909294 102.44941827158459 69.85840310380341 H 0.0 **** 0.06
14214 H 20.55229791070653 102.72566437581574 69.62604875036914 H 0.0 **** 0.06
14215 H 19.88113545624111 102.61261062986472 71.26994551564661 H 0.0 **** 0.06
14216 C 75.49006209842491 34.74557721594016 106.58386149050921 C 0.0 **** -0.24
14217 H 75.46962879077051 33.73410726660808 106.18023833651442 H 0.0 **** 0.06
14218 H 74.54262794092057 35.241566822769016 106.37223316260608 H 0.0 **** 0.06
14219 H 76.30377826974257 35.30503341061518 106.1211407126896 H 0.0 **** 0.06
14220 H 75.64585699355445 34.70389657874239 107.6620096235072 H 0.0 **** 0.06
14221 C 51.475490173253604 84.25388743644226 61.85705517388641 C 0.0 **** -0.24
14222 H 50.60904433205047 83.60410835501199 61.73737468972982 H 0.0 **** 0.06
14223 H 51.71167302588856 84.35104419169485 62.91708676233196 H 0.0 **** 0.06
14224 H 51.2523362767555 85.23675538383984 61.44231714645963 H 0.0 **** 0.06
14225 H 52.32815329367281 83.8223237799385 61.333083697489684 H 0.0 **** 0.06
14226 C 29.406991654112602 35.65833379674863 106.33683942770324 C 0.0 **** -0.24
14227 H 28.478828960765526 35.104057107021106 106.19921656522949 H 0.0 **** 0.06
14228 H 29.19450391218112 36.60419474888612 106.83555552461854 H 0.0 **** 0.06
14229 H 29.860937230969 35.85377817514946 105.36518124270856 H 0.0 **** 0.06
14230 H 30.093241598130135 35.07099500521695 106.94656956961805 H 0.0 **** 0.06
14231 C 96.17205918522473 20.61013221288215 20.029216521251016 C 0.0 **** -0.24
14232 H 96.13883541204754 19.762539010681735 19.344542393880403 H 0.0 **** 0.06
14233 H 96.09492811554313 21.538561946600794 19.46082064816062 H 0.0 **** 0.06
14234 H 97.11308525968894 20.59721767238102 20.579056357316148 H 0.0 **** 0.06
14235 H 95.33970485615606 20.54369359758391 20.73072414456189 H 0.0 **** 0.06
14236 C 8.352807958530093 52.007022100702216 75.45616614987676 C 0.0 **** -0.24
14237 H 8.32002488361843 52.73839034603429 74.6477185423094 H 0.0 **** 0.06
14238 H 8.946684026107505 52.4028211653075 76.2800253754097 H 0.0 **** 0.06
14239 H 8.804836917491912 51.0842616375823 75.09206909114044 H 0.0 **** 0.06
14240 H 7.33960432783158 51.803549595044274 75.80282167307081 H 0.0 **** 0.06
14241 C 10.0085889090619 40.81101282394801 56.7422915785483 C 0.0 **** -0.24
14242 H 10.639925494334108 41.69745911303363 56.67984313765746 H 0.0 **** 0.06
14243 H 10.564890415095022 39.94274646674271 56.3889321580672 H 0.0 **** 0.06
14244 H 9.122858922804 40.95216030111028 56.12287048645219 H 0.0 **** 0.06
14245 H 9.706356612773789 40.65303753973322 57.77726217067038 H 0.0 **** 0.06
14246 C 21.89171461120833 19.85821943537013 29.88209617543515 C 0.0 **** -0.24
14247 H 20.995683078727666 20.465452336185137 29.751209073725107 H 0.0 **** 0.06
14248 H 22.774153948778462 20.46068056773214 29.663587212840866 H 0.0 **** 0.06
14249 H 21.856495825043737 19.006976332688936 29.202919850768552 H 0.0 **** 0.06
14250 H 21.940879334861563 19.500602469889174 30.91109213800138 H 0.0 **** 0.06
14251 C 80.28043410505217 11.918250041911438 34.55544665019429 C 0.0 **** -0.24
14252 H 79.46764992796727 11.203580655296522 34.68126483273892 H 0.0 **** 0.06
14253 H 80.84987126156884 11.666064596597609 33.66084699890693 H 0.0 **** 0.06
14254 H 80.93504149662397 11.881574590973702 35.4262306545865 H 0.0 **** 0.06
14255 H 79.86825668670741 12.92269153433147 34.452870691996324 H 0.0 **** 0.06
14256 C 84.40695351547603 5.431391091371125 89.53510315455117 C 0.0 **** -0.24
14257 H 84.13669321940787 6.305772784716453 88.94214381040182 H 0.0 **** 0.06
14258 H 84.17856588392308 5.620872899008418 90.58456754326221 H 0.0 **** 0.06
14259 H 85.47205676014087 5.232838635849021 89.42402381091847 H 0.0 **** 0.06
14260 H 83.83792346371874 4.5687230780163475 89.18905635208868 H 0.0 **** 0.06
14261 C 18.408801600755012 88.51639926909988 44.39105603012402 C 0.0 **** -0.24
14262 H 18.2564876113332 87.45716311441865 44.18180029090078 H 0.0 **** 0.06
14263 H 18.847010240790866 88.63106340866673 45.38339927408876 H 0.0 **** 0.06
14264 H 17.450696756316916 89.03479101704653 44.3543435357937 H 0.0 **** 0.06
14265 H 19.08046131241123 88.94060715597107 43.6455793045167 H 0.0 **** 0.06
14266 C 5.225629105819323 52.891856618977116 79.2280292206969 C 0.0 **** -0.24
14267 H 5.161787822942102 51.88140977206402 79.6314473098326 H 0.0 **** 0.06
14268 H 6.1095848415420875 52.974480589861024 78.5953426773437 H 0.0 **** 0.06
14269 H 5.295911671116585 53.60644156418336 80.04742678772476 H 0.0 **** 0.06
14270 H 4.334625746705598 53.10279034040686 78.63637585787967 H 0.0 **** 0.06
14271 C 101.59734321013994 41.19641714512588 82.81630189270322 C 0.0 **** -0.24
14272 H 102.67129914638033 41.05330653351831 82.92895905319392 H 0.0 **** 0.06
14273 H 101.39853910056988 42.2168728785376 82.48756679103991 H 0.0 **** 0.06
14274 H 101.10472546687106 41.01946795549472 83.77227492567187 H 0.0 **** 0.06
14275 H 101.21433380667179 40.49424279374219 82.07479076494451 H 0.0 **** 0.06
14276 C 60.2757469936515 20.13111315117453 104.28476156428047 C 0.0 **** -0.24
14277 H 61.246568272612095 20.56443055812727 104.5242500898164 H 0.0 **** 0.06
14278 H 60.205196331920774 19.97005941569975 103.20877781384218 H 0.0 **** 0.06
14279 H 59.48574018198476 20.811421689077008 104.60317206640491 H 0.0 **** 0.06
14280 H 60.16548318808832 19.178540941794324 104.8028462870586 H 0.0 **** 0.06
14281 C 69.18916194516042 90.15293908639039 11.88374679340842 C 0.0 **** -0.24
14282 H 70.07432735709399 90.78384336753754 11.790656587199209 H 0.0 **** 0.06
14283 H 68.97474665314644 89.9823662851313 12.939100640837012 H 0.0 **** 0.06
14284 H 69.37025015357978 89.19843119722849 11.390538507883505 H 0.0 **** 0.06
14285 H 68.3392267961236 90.64930756432211 11.415448509687835 H 0.0 **** 0.06
14286 C 99.99463018277274 7.941426759834428 99.28964643976312 C 0.0 **** -0.24
14287 H 99.40944599510016 8.533748417218476 99.99358057054486 H 0.0 **** 0.06
14288 H 100.01419317684152 8.443071617019129 98.32142461735198 H 0.0 **** 0.06
14289 H 99.54109106889541 6.955629494497799 99.17976105118858 H 0.0 **** 0.06
14290 H 101.01242936293326 7.833493452502182 99.66351660754908 H 0.0 **** 0.06
14291 C 4.108034361534919 6.082287672477264 12.702350871450335 C 0.0 **** -0.24
14292 H 4.016373538636117 5.031538717706923 12.42963934430773 H 0.0 **** 0.06
14293 H 5.022795509930205 6.230155438403784 13.276373410083721 H 0.0 **** 0.06
14294 H 3.2488647722024098 6.377246367687036 13.30537220161068 H 0.0 **** 0.06
14295 H 4.14270149626914 6.690375042090324 11.797935211199672 H 0.0 **** 0.06
14296 C 45.37520535672562 13.104070634099571 91.52389334542158 C 0.0 **** -0.24
14297 H 46.10015514116117 13.447288741017815 90.7849258838661 H 0.0 **** 0.06
14298 H 45.890804267572285 12.548769086709598 92.30703741575189 H 0.0 **** 0.06
14299 H 44.642904045767416 12.45647887627598 91.04075210645527 H 0.0 **** 0.06
14300 H 44.86737489843551 13.963061803590506 91.96054312063569 H 0.0 **** 0.06
14301 C 80.26410497946478 38.81464183148722 100.02115652612032 C 0.0 **** -0.24
14302 H 79.36730770664475 38.58250949869537 99.44538138775644 H 0.0 **** 0.06
14303 H 80.32525312399498 39.8920337293267 100.17938540071071 H 0.0 **** 0.06
14304 H 81.14351496050499 38.47732639690312 99.47276972879621 H 0.0 **** 0.06
14305 H 80.21956095119596 38.30671357042121 100.98419359020434 H 0.0 **** 0.06
14306 C 12.988903070723467 44.23357400469213 105.85078165698582 C 0.0 **** -0.24
14307 H 12.634514645811393 44.98982787855314 105.15096268687572 H 0.0 **** 0.06
14308 H 12.166666422774696 43.921390327719074 106.49552734772718 H 0.0 **** 0.06
14309 H 13.792218148150965 44.64828711010695 106.45978218045245 H 0.0 **** 0.06
14310 H 13.362559933091305 43.372777493997695 105.29594506942006 H 0.0 **** 0.06
14311 C 42.69414617027378 80.10146413549367 26.497426511251916 C 0.0 **** -0.24
14312 H 42.685698370559514 79.15473235806807 25.958535777925547 H 0.0 **** 0.06
14313 H 41.68119125901164 80.50088328174877 26.544526279339394 H 0.0 **** 0.06
14314 H 43.34052293922434 80.80922312417819 25.97833210986491 H 0.0 **** 0.06
14315 H 43.06917211229971 79.94101777797925 27.5083118778779 H 0.0 **** 0.06
14316 C 49.91429333020227 43.32166998020617 56.54042162976532 C 0.0 **** -0.24
14317 H 49.719737110357606 43.22158179732631 55.47287588667828 H 0.0 **** 0.06
14318 H 50.76619000662737 43.985270499319796 56.69387253992019 H 0.0 **** 0.06
14319 H 50.135466289691536 42.341817184596295 56.96366474076973 H 0.0 **** 0.06
14320 H 49.035386397410626 43.73919541307052 57.031937486105306 H 0.0 **** 0.06
14321 C 57.21052531912056 78.08024672890872 52.897448862574976 C 0.0 **** -0.24
14322 H 56.73249717245153 77.80705188264943 51.957118420441674 H 0.0 **** 0.06
14323 H 56.602129090079586 77.72646555333114 53.729737040634205 H 0.0 **** 0.06
14324 H 57.306471870741575 79.16555622542029 52.95318359383825 H 0.0 **** 0.06
14325 H 58.19903187271518 77.62453693306719 52.948262741931444 H 0.0 **** 0.06
14326 C 81.24231228690614 20.223244236788616 3.2160964750957817 C 0.0 **** -0.24
14327 H 81.03610459197019 19.33107805422526 3.8063290895298962 H 0.0 **** 0.06
14328 H 81.64560718084068 21.002004901733926 3.8635381878589783 H 0.0 **** 0.06
14329 H 80.31984576632055 20.575640388159968 2.754256467130972 H 0.0 **** 0.06
14330 H 81.96942915370607 19.984585921583914 2.4388944090821383 H 0.0 **** 0.06
14331 C 105.4631182847959 87.47059794536358 91.89420292089925 C 0.0 **** -0.24
14332 H 105.7045683681243 88.02041343031095 92.80380310275645 H 0.0 **** 0.06
14333 H 104.9470234851782 88.13027995083229 91.19663104754383 H 0.0 **** 0.06
14334 H 104.81918112069019 86.62620572943285 92.14108435946352 H 0.0 **** 0.06
14335 H 106.38241226072573 87.10419184433675 91.43696679281561 H 0.0 **** 0.06
14336 C 1.1012498602547112 25.604561552203847 52.206649755526385 C 0.0 **** -0.24
14337 H 0.2964439618382926 26.096698283808706 51.66128237908641 H 0.0 **** 0.06
14338 H 0.6775390622828468 24.959845257304494 52.977399272969166 H 0.0 **** 0.06
14339 H 1.738752055514567 26.35747386317837 52.670824011401464 H 0.0 **** 0.06
14340 H 1.6935958298668652 25.00382801440955 51.5150767190551 H 0.0 **** 0.06
14341 C 65.98304815483212 97.23059614390831 1.6497062083134608 C 0.0 **** -0.24
14342 H 66.35082560617909 96.45006790890932 0.9835094377295093 H 0.0 **** 0.06
14343 H 64.89294003367704 97.24119566806127 1.6283127856657131 H 0.0 **** 0.06
14344 H 66.36303560595277 98.1971510865294 1.3194127490937149 H 0.0 **** 0.06
14345 H 66.32463604038404 97.03302300841676 2.6650338455868905 H 0.0 **** 0.06
14346 C 84.37987382417876 94.06398156894443 46.933831947814845 C 0.0 **** -0.24
14347 H 84.40871510348813 95.13377493589684 46.72702276540068 H 0.0 **** 0.06
14348 H 83.34868882839646 93.75439614262109 47.100430333317945 H 0.0 **** 0.06
14349 H 84.97218719546343 93.85100387112857 47.823556098290915 H 0.0 **** 0.06
14350 H 84.79087027628539 93.51867987618846 46.084908138429135 H 0.0 **** 0.06
14351 C 15.947742705637225 97.3966801927275 90.87048155399816 C 0.0 **** -0.24
14352 H 14.890913651584754 97.45642900283931 90.61136166984596 H 0.0 **** 0.06
14353 H 16.07434664357315 97.62732627742353 91.92889999536041 H 0.0 **** 0.06
14354 H 16.50927855759194 98.11387936406291 90.2719771398406 H 0.0 **** 0.06
14355 H 16.314923661937797 96.39066117754567 90.67080298172016 H 0.0 **** 0.06
14356 C 74.60988564280531 84.42649895722116 23.91055502817386 C 0.0 **** -0.24
14357 H 73.71171447841107 83.96969774726617 23.495268489391947 H 0.0 **** 0.06
14358 H 75.3129861299965 83.6452376704755 24.202295141354767 H 0.0 **** 0.06
14359 H 74.3439028188689 85.0214447543735 24.783772241846748 H 0.0 **** 0.06
14360 H 75.07037646221923 85.06804876555341 23.159391433539724 H 0.0 **** 0.06
14361 C 49.537625144934566 39.92589477693416 41.81511532942022 C 0.0 **** -0.24
14362 H 50.14103130424496 39.17617772901215 41.30345425389572 H 0.0 **** 0.06
14363 H 49.43141300211789 39.65194167000283 42.86494598260907 H 0.0 **** 0.06
14364 H 48.55279153072206 39.977291951198964 41.35075362427668 H 0.0 **** 0.06
14365 H 50.0260802823376 40.89765593427356 41.74103731243213 H 0.0 **** 0.06
14366 C 7.83320788214013 52.75007351288776 102.69280070864517 C 0.0 **** -0.24
14367 H 6.842930029288496 52.73630404079859 102.2367404970604 H 0.0 **** 0.06
14368 H 8.559878853557436 53.128065679560706 101.97219261453006 H 0.0 **** 0.06
14369 H 8.109573797784506 51.73973142901208 102.99318451168028 H 0.0 **** 0.06
14370 H 7.81965882305613 53.39884912292867 103.56851888947949 H 0.0 **** 0.06
14371 C 43.560160494696206 49.027793927886 82.29306575920765 C 0.0 **** -0.24
14372 H 44.59247904164528 48.994686559093225 82.64154966468473 H 0.0 **** 0.06
14373 H 43.2292745804309 48.02124147493823 82.03830243283006 H 0.0 **** 0.06
14374 H 43.495082968001235 49.66619157170601 81.4117802849218 H 0.0 **** 0.06
14375 H 42.92414604452907 49.431161585918375 83.0813023219825 H 0.0 **** 0.06
14376 C 22.05366243288151 17.4526482860864 24.695182898003623 C 0.0 **** -0.24
14377 H 21.666910012727584 18.285212960244422 25.283229117488673 H 0.0 **** 0.06
14378 H 23.070062928363484 17.678141136083497 24.372020823987555 H 0.0 **** 0.06
14379 H 21.41952133225115 17.299088814473663 23.821634792496297 H 0.0 **** 0.06
14380 H 22.057780599908057 16.549022338233897 25.304161438288276 H 0.0 **** 0.06
14381 C 71.13829063052998 32.346658019966696 42.22211136512803 C 0.0 **** -0.24
14382 H 72.22018797356378 32.2117408878627 42.20435591229125 H 0.0 **** 0.06
14383 H 70.79668217626926 32.40590905274209 43.256102053440316 H 0.0 **** 0.06
14384 H 70.65825826553095 31.50204729534508 41.729078604179136 H 0.0 **** 0.06
14385 H 70.87898263365503 33.267752179567964 41.70076158847098 H 0.0 **** 0.06
14386 C 96.34078279671891 42.52729998766338 75.6929889559377 C 0.0 **** -0.24
14387 H 97.17145419258887 42.25077321413542 76.34275715268134 H 0.0 **** 0.06
14388 H 96.0741804824481 41.67688810915007 75.06413712505937 H 0.0 **** 0.06
14389 H 96.63431028389228 43.3671027374165 75.06380883399171 H 0.0 **** 0.06
14390 H 95.48253676245717 42.81233659486995 76.30166669870661 H 0.0 **** 0.06
14391 C 88.11195960187645 2.922668319605492 21.211611238131695 C 0.0 **** -0.24
14392 H 88.9453959221471 2.2212625134378072 21.16723192688869 H 0.0 **** 0.06
14393 H 88.37103752140956 3.8295635549591793 20.664567908238155 H 0.0 **** 0.06
14394 H 87.90168153678425 3.1723451346866227 22.251332501915158 H 0.0 **** 0.06
14395 H 87.22980019497959 2.4666658252805007 20.76217468550476 H 0.0 **** 0.06
14396 C 51.10763625654721 2.7705084809228993 24.82862628443206 C 0.0 **** -0.24
14397 H 51.40060619075592 2.0250301099576973 25.56777330253564 H 0.0 **** 0.06
14398 H 51.97763625714225 3.3667239300991127 24.55021844255654 H 0.0 **** 0.06
14399 H 50.34187427374064 3.4197984787265625 25.25264842549052 H 0.0 **** 0.06
14400 H 50.71214349104679 2.270570455416447 23.945611529934894 H 0.0 **** 0.06
14401 C 32.8681688186052 89.59829146540591 44.051645011076346 C 0.0 **** -0.24
14402 H 32.32116805805447 88.66868697374673 44.210249500246675 H 0.0 **** 0.06
14403 H 33.91437171583473 89.37309130309472 43.84306619551367 H 0.0 **** 0.06
14404 H 32.8011896379206 90.21647521780369 44.94768206954802 H 0.0 **** 0.06
14405 H 32.43587623672826 90.13502034274302 43.20657401460633 H 0.0 **** 0.06
14406 C 74.3471137452377 20.79159103949229 50.5482915548046 C 0.0 **** -0.24
14407 H 74.15931755061601 21.541595712952244 49.77989172957215 H 0.0 **** 0.06
14408 H 73.43570377101109 20.21919405495106 50.726819854640624 H 0.0 **** 0.06
14409 H 74.6539785603678 21.28413731815965 51.47079729529697 H 0.0 **** 0.06
14410 H 75.13825310184883 20.119785895710407 50.214746817680236 H 0.0 **** 0.06
14411 C 74.85780327188968 5.746503609290643 48.52264587559182 C 0.0 **** -0.24
14412 H 75.10194883798448 5.495648177528578 49.555848804144176 H 0.0 **** 0.06
14413 H 75.7001043596659 5.494778046751403 47.87859711620368 H 0.0 **** 0.06
14414 H 74.64953441895591 6.81442902504101 48.44922142081805 H 0.0 **** 0.06
14415 H 73.97945882742839 5.182851096815357 48.21009582668452 H 0.0 **** 0.06
14416 C 101.46433772382142 2.3066425152317436 91.87543053050283 C 0.0 **** -0.24
14417 H 100.56370134199985 1.979930232761106 92.3958130112805 H 0.0 **** 0.06
14418 H 102.04564882812434 1.43487254438611 91.57487233051731 H 0.0 **** 0.06
14419 H 102.06232370652741 2.93054089147644 92.54016454929783 H 0.0 **** 0.06
14420 H 101.18567626953381 2.88002029184112 90.99161075187686 H 0.0 **** 0.06
14421 C 58.71652131747436 40.80908980716961 18.98123392161479 C 0.0 **** -0.24
14422 H 57.80818974524624 40.321783759658075 18.623799481367634 H 0.0 **** 0.06
14423 H 59.582177467203735 40.37271752656861 18.482575334958348 H 0.0 **** 0.06
14424 H 58.80560982099911 40.664498701726586 20.057440830273944 H 0.0 **** 0.06
14425 H 58.66719978925647 41.87535866101183 18.759879370517147 H 0.0 **** 0.06
14426 C 4.923474393514965 74.03484548070684 49.59259998017666 C 0.0 **** -0.24
14427 H 5.1520375679913 73.17678955625064 50.22363290216788 H 0.0 **** 0.06
14428 H 4.083534784442946 74.58485370010715 50.018379469957935 H 0.0 **** 0.06
14429 H 4.662760614839868 73.69166505759414 48.59168279778994 H 0.0 **** 0.06
14430 H 5.795129302168334 74.68800294553857 49.53814989653384 H 0.0 **** 0.06
14431 C 50.704890914904354 18.724147421799756 30.866433297714337 C 0.0 **** -0.24
14432 H 49.687404521100405 18.40522906873295 30.641853248480345 H 0.0 **** 0.06
14433 H 50.732458090308796 19.810047049890116 30.96278062416667 H 0.0 **** 0.06
14434 H 51.36867426816144 18.413223191496797 30.060262442144023 H 0.0 **** 0.06
14435 H 51.030108987738174 18.267732623787055 31.801851647940623 H 0.0 **** 0.06
14436 C 0.020259235612925863 70.22384535522869 40.33024972998663 C 0.0 **** -0.24
14437 H 0.6153985442611969 70.16011682716427 41.241396590187975 H 0.0 **** 0.06
14438 H -0.7135958963187221 69.4174389611222 40.31767510701681 H 0.0 **** 0.06
14439 H 0.6737606899895638 70.13476041410193 39.46275194650596 H 0.0 **** 0.06
14440 H -0.4934646295796483 71.18503210000736 40.299240549906926 H 0.0 **** 0.06
14441 C 105.08168991461851 91.00392824201529 100.05205738466626 C 0.0 **** -0.24
14442 H 105.9278496804616 91.32353772552162 100.65972514215335 H 0.0 **** 0.06
14443 H 104.47893504481665 91.8721973142831 99.78390045512654 H 0.0 **** 0.06
14444 H 104.47336701165378 90.29941479970613 100.61939923085848 H 0.0 **** 0.06
14445 H 105.44748148594707 90.52061974493893 99.14568816255351 H 0.0 **** 0.06
14446 C 81.79888404267723 81.64680058607243 30.975621569876132 C 0.0 **** -0.24
14447 H 80.94501559150613 81.08149330143274 30.600793478640462 H 0.0 **** 0.06
14448 H 81.52409733477371 82.144081255408 31.90583869947818 H 0.0 **** 0.06
14449 H 82.09262796045176 82.39341350744027 30.237288042104552 H 0.0 **** 0.06
14450 H 82.63208247389534 80.96841555475532 31.158405098905796 H 0.0 **** 0.06
14451 C 103.84153802742948 94.9936542851037 0.4523344416871282 C 0.0 **** -0.24
14452 H 104.82635738015594 94.59121995205464 0.6867125450368121 H 0.0 **** 0.06
14453 H 103.23603703969799 95.02271520324402 1.3585197148333918 H 0.0 **** 0.06
14454 H 103.35671903381359 94.35767757496015 -0.2884981211702211 H 0.0 **** 0.06
14455 H 103.9465195346096 96.00172433982166 0.0529069842174863 H 0.0 **** 0.06
14456 C 21.574764784315505 75.56801104103326 36.53008120566821 C 0.0 **** -0.24
14457 H 22.55655590197705 75.10451331840818 36.432138464972695 H 0.0 **** 0.06
14458 H 21.57420791892403 76.52742877513313 36.01326403806601 H 0.0 **** 0.06
14459 H 21.349585713491166 75.72230924645274 37.58468259597987 H 0.0 **** 0.06
14460 H 20.82026879935404 74.91628815875205 36.089097285610535 H 0.0 **** 0.06
14461 C 30.951376282176454 77.90126450077122 87.53901341333528 C 0.0 **** -0.24
14462 H 32.02180834973915 77.96201695186838 87.73431066154893 H 0.0 **** 0.06
14463 H 30.568607889857084 76.95023689253057 87.90684553386495 H 0.0 **** 0.06
14464 H 30.77368654312616 77.9752098062389 86.46609116062336 H 0.0 **** 0.06
14465 H 30.442300092480217 78.7203653713114 88.04808802151314 H 0.0 **** 0.06
14466 C 67.68454687865729 90.5758804848812 75.0731231739031 C 0.0 **** -0.24
14467 H 67.65705364830553 89.7902855282342 75.82800619665792 H 0.0 **** 0.06
14468 H 68.61681973572064 90.50893086360826 74.51257097911142 H 0.0 **** 0.06
14469 H 67.62188176488652 91.55006042803085 75.55885897198397 H 0.0 **** 0.06
14470 H 66.8413648680724 90.4551010682703 74.39269892677842 H 0.0 **** 0.06
14471 C 38.646796912569215 106.73241899546872 86.67020574466747 C 0.0 **** -0.24
14472 H 38.66681033284948 106.20138573319753 87.62227027916593 H 0.0 **** 0.06
14473 H 38.66426041196132 106.01101373122333 85.85273818032316 H 0.0 **** 0.06
14474 H 39.51747057255798 107.38464254191524 86.59946998615175 H 0.0 **** 0.06
14475 H 37.738071634164626 107.3306011680279 86.60707777597555 H 0.0 **** 0.06
14476 C 101.46259600311072 74.79090960048762 22.647352606457787 C 0.0 **** -0.24
14477 H 101.059467206558 75.0418816719787 21.666631512737524 H 0.0 **** 0.06
14478 H 101.78763996001538 75.70257155232078 23.150434806940723 H 0.0 **** 0.06
14479 H 102.31185163975783 74.11818726449381 22.530625583359665 H 0.0 **** 0.06
14480 H 100.69161218677164 74.30257362740852 23.24358465224202 H 0.0 **** 0.06
14481 C 6.799296055314882 74.56391812000174 85.32260185945165 C 0.0 **** -0.24
14482 H 6.729455341175926 75.0839184017579 86.27913245843875 H 0.0 **** 0.06
14483 H 7.6595215149970635 74.93842110998662 84.76836333238901 H 0.0 **** 0.06
14484 H 5.890266641999679 74.73933226673847 84.74736790240311 H 0.0 **** 0.06
14485 H 6.9166868682664795 73.4946053300016 85.49901691562943 H 0.0 **** 0.06
14486 C 92.4590554254184 80.54832186141049 98.62153673809638 C 0.0 **** -0.24
14487 H 92.79756647770277 81.53217823015464 98.94638996646384 H 0.0 **** 0.06
14488 H 93.1472592226025 79.78704915832289 98.99038381112598 H 0.0 **** 0.06
14489 H 92.43263043740424 80.51558108126311 97.53183286994314 H 0.0 **** 0.06
14490 H 91.46151815042607 80.35852428284379 99.01634798380482 H 0.0 **** 0.06
14491 C 14.796188191222598 78.54229389061139 2.44545102972603 C 0.0 **** -0.24
14492 H 14.541307296285424 77.50001928100517 2.6370106024878055 H 0.0 **** 0.06
14493 H 15.528853913302385 78.87825224921285 3.1791032767092133 H 0.0 **** 0.06
14494 H 13.897508176406802 79.15505761833393 2.5209863515144093 H 0.0 **** 0.06
14495 H 15.2149564383663 78.63538203518074 1.4435810557550894 H 0.0 **** 0.06
14496 C 81.78373474241805 74.33691555795397 82.8217123795817 C 0.0 **** -0.24
14497 H 81.68840037928469 75.34770329465147 82.42393447735606 H 0.0 **** 0.06
14498 H 80.85156973661574 73.79429466240353 82.66034096596607 H 0.0 **** 0.06
14499 H 81.99616701018202 74.38572475313791 83.88951895558955 H 0.0 **** 0.06
14500 H 82.59775074844038 73.82054135048426 82.31181691945037 H 0.0 **** 0.06
14501 C 13.641690622827696 27.411791233537457 82.28576536375141 C 0.0 **** -0.24
14502 H 12.970845899903807 28.207576461213137 81.9632162953734 H 0.0 **** 0.06
14503 H 14.668848286359548 27.677939860736842 82.03369233698089 H 0.0 **** 0.06
14504 H 13.372040668859668 26.48322126882556 81.78107684385162 H 0.0 **** 0.06
14505 H 13.55440599820679 27.277560765028028 83.36414716219457 H 0.0 **** 0.06
14506 C 29.66582470615151 23.911529943613672 83.82643395976571 C 0.0 **** -0.24
14507 H 29.380225263385853 24.92931281209104 83.55728199417028 H 0.0 **** 0.06
14508 H 30.418088231621596 23.941623669256714 84.61483276488387 H 0.0 **** 0.06
14509 H 30.07593785447449 23.40713319241307 82.95071945499407 H 0.0 **** 0.06
14510 H 28.78897999086945 23.370656230345134 84.18041081535917 H 0.0 **** 0.06
14511 C 43.52199458814948 63.71180993240793 11.619793962975564 C 0.0 **** -0.24
14512 H 43.181670982860396 63.6592091835643 12.65477646969805 H 0.0 **** 0.06
14513 H 42.92119980921524 63.04090454886274 11.00599326716059 H 0.0 **** 0.06
14514 H 44.56875227340902 63.41396584753598 11.566250346749314 H 0.0 **** 0.06
14515 H 43.41583436840199 64.73311509254185 11.255109922654356 H 0.0 **** 0.06
14516 C 34.314280522239045 60.89370578950256 38.73622534706411 C 0.0 **** -0.24
14517 H 33.4983177771102 60.67986018814267 39.42739147527948 H 0.0 **** 0.06
14518 H 33.916795993878 61.38341639805081 37.84638527885019 H 0.0 **** 0.06
14519 H 34.80140437177687 59.96076099609602 38.45091127461953 H 0.0 **** 0.06
14520 H 35.03744895758814 61.548774006951916 39.220230172522676 H 0.0 **** 0.06
14521 C 106.78281292714374 11.288097580007673 79.95621959484077 C 0.0 **** -0.24
14522 H 107.1617608219979 11.713914137161566 79.02712354939362 H 0.0 **** 0.06
14523 H 106.98094304576563 10.216350428005057 79.97197419816624 H 0.0 **** 0.06
14524 H 105.70897060801629 11.460518885927357 80.02313924283719 H 0.0 **** 0.06
14525 H 107.28056916792724 11.762498073454935 80.80217031434724 H 0.0 **** 0.06
14526 C 49.26071717202217 43.568677909346604 87.32870182125302 C 0.0 **** -0.24
14527 H 49.14164792400601 42.65129210374755 87.90575947509262 H 0.0 **** 0.06
14528 H 50.30800428863449 43.688582367420395 87.05141438492126 H 0.0 **** 0.06
14529 H 48.94369189827151 44.420756737445004 87.92974536351734 H 0.0 **** 0.06
14530 H 48.64974610176114 43.51220970123131 86.42721613178627 H 0.0 **** 0.06
14531 C 64.97242079589276 31.619245600837985 24.811497100872046 C 0.0 **** -0.24
14532 H 64.59360748875892 32.23785729025602 23.99848866300269 H 0.0 **** 0.06
14533 H 66.03013213876037 31.410937164501277 24.64684573922611 H 0.0 **** 0.06
14534 H 64.4185264576565 30.68076272063577 24.841905487858412 H 0.0 **** 0.06
14535 H 64.84864342025097 32.14583115527944 25.757771120318083 H 0.0 **** 0.06
14536 C 62.0680504359008 72.87278711673966 104.69110061160897 C 0.0 **** -0.24
14537 H 61.83153359113771 73.93328923890238 104.7827454685242 H 0.0 **** 0.06
14538 H 61.86852127153119 72.54371516571337 103.67150488229791 H 0.0 **** 0.06
14539 H 61.45177790225915 72.30226442720397 105.38543820931467 H 0.0 **** 0.06
14540 H 63.121274483986 72.71471773284742 104.92506839435384 H 0.0 **** 0.06
14541 C 84.36583034407971 81.49179263872722 15.564119382952356 C 0.0 **** -0.24
14542 H 84.42475828595978 80.78583174358769 14.734845311210776 H 0.0 **** 0.06
14543 H 83.60123073949529 82.23801881148071 15.35069585802913 H 0.0 **** 0.06
14544 H 85.32977567051365 81.98448906772617 15.690445684179327 H 0.0 **** 0.06
14545 H 84.10820840764065 80.95694716910717 16.47803565314525 H 0.0 **** 0.06
14546 C 41.13804281636955 69.62284495284138 98.31169100485107 C 0.0 **** -0.24
14547 H 41.25422717559958 70.03539987764532 97.30904082774902 H 0.0 **** 0.06
14548 H 40.99297739212369 68.54518348190533 98.24539301279788 H 0.0 **** 0.06
14549 H 40.27208590612507 70.07800432200025 98.79325857535656 H 0.0 **** 0.06
14550 H 42.032628693989146 69.83422068059741 98.8970977834154 H 0.0 **** 0.06
14551 C 106.67691001273528 64.99166450875464 47.87616623639437 C 0.0 **** -0.24
14552 H 107.04524014517636 65.49797924382142 48.76869244547984 H 0.0 **** 0.06
14553 H 105.62518871089856 65.23660938041667 47.728548448301694 H 0.0 **** 0.06
14554 H 106.78625945781249 63.91484806724975 47.997482641832505 H 0.0 **** 0.06
14555 H 107.25143150692708 65.32050156114624 47.009838941471855 H 0.0 **** 0.06
14556 C 34.04239070280704 10.451005265371755 36.250112593007316 C 0.0 **** -0.24
14557 H 33.07403250809814 10.932197118228668 36.38505141509498 H 0.0 **** 0.06
14558 H 34.47755240436771 10.230072222477455 37.22499392572479 H 0.0 **** 0.06
14559 H 34.70492114762052 11.117647083621799 35.69765460859031 H 0.0 **** 0.06
14560 H 33.91179219138591 9.523511803427919 35.69172593497339 H 0.0 **** 0.06
14561 C 92.11903418865616 101.99212860553803 50.99206022835938 C 0.0 **** -0.24
14562 H 92.64499870131934 102.40122113177114 50.12888099529717 H 0.0 **** 0.06
14563 H 91.72790853081926 102.80886265651218 51.5990486416697 H 0.0 **** 0.06
14564 H 92.80980193272877 101.39454916069853 51.58813950645644 H 0.0 **** 0.06
14565 H 91.29554722077256 101.36417152564344 50.65152118246334 H 0.0 **** 0.06
14566 C 25.254214048979236 27.889085543664123 55.078084814820635 C 0.0 **** -0.24
14567 H 25.49924185844472 28.85658843695967 55.51675468053562 H 0.0 **** 0.06
14568 H 25.343545433655407 27.11380661138344 55.838852305207816 H 0.0 **** 0.06
14569 H 25.943272556272518 27.677528411323976 54.25994442478101 H 0.0 **** 0.06
14570 H 24.23346123417383 27.910897920005425 54.69765535461323 H 0.0 **** 0.06
14571 C 2.1958160756183815 76.98637734757077 34.58832125940043 C 0.0 **** -0.24
14572 H 3.1028599674057915 77.58981268234399 34.58697018975106 H 0.0 **** 0.06
14573 H 2.391452287318728 76.03574556404116 34.09170328231633 H 0.0 **** 0.06
14574 H 1.4051162812172038 77.51779450788376 34.0574075116548 H 0.0 **** 0.06
14575 H 1.8836324491743426 76.80244026383704 35.6162668968178 H 0.0 **** 0.06
14576 C 48.21805197004886 11.79410091129373 17.40504878016548 C 0.0 **** -0.24
14577 H 47.71385845974493 11.646493453430754 16.44997566640044 H 0.0 **** 0.06
14578 H 47.697442990565264 12.563910258204146 17.97484837369981 H 0.0 **** 0.06
14579 H 49.24717469131349 12.10665607021131 17.22733435575074 H 0.0 **** 0.06
14580 H 48.21416374021345 10.859774911979937 17.966760925556237 H 0.0 **** 0.06
14581 C 82.9915493201512 50.959459279385584 6.737970845912201 C 0.0 **** -0.24
14582 H 82.13786796185303 51.41944064025543 6.241377510484483 H 0.0 **** 0.06
14583 H 82.6510381830551 50.117676738123805 7.341984160938551 H 0.0 **** 0.06
14584 H 83.47732679299384 51.695021947622905 7.380263289349273 H 0.0 **** 0.06
14585 H 83.70099827218206 50.60712560873375 5.989634125654334 H 0.0 **** 0.06
14586 C 6.488167728674171 13.66216734027742 9.384444842841788 C 0.0 **** -0.24
14587 H 7.458016541265749 13.791249268657715 9.864868450208974 H 0.0 **** 0.06
14588 H 6.049865763799573 12.715306944667905 9.700037131963597 H 0.0 **** 0.06
14589 H 6.617539056685473 13.660555561919647 8.301640511633764 H 0.0 **** 0.06
14590 H 5.8294698956974 14.481297046008567 9.671184010044954 H 0.0 **** 0.06
14591 C 50.67811526937248 28.73000797257575 66.69095287796024 C 0.0 **** -0.24
14592 H 51.55752648630511 28.161968748901312 66.9950467413244 H 0.0 **** 0.06
14593 H 50.717869982799044 29.725694695839877 67.13315558958921 H 0.0 **** 0.06
14594 H 49.779138566422404 28.215967319855295 67.03213293939892 H 0.0 **** 0.06
14595 H 50.658435388533235 28.813810691818453 65.60449141970338 H 0.0 **** 0.06
14596 C 2.0314444343819105 104.34448571867975 99.22846928645258 C 0.0 **** -0.24
14597 H 2.7926503676355594 104.5168401495678 99.98852857758583 H 0.0 **** 0.06
14598 H 1.8925643685078626 103.27120016029733 99.09046115331812 H 0.0 **** 0.06
14599 H 2.3490231309598357 104.79324738319028 98.28702812098483 H 0.0 **** 0.06
14600 H 1.0915135375240368 104.79470210108684 99.54677071086122 H 0.0 **** 0.06
14601 C 61.27508612779694 25.015086116270908 24.610121536331928 C 0.0 **** -0.24
14602 H 62.023226818622874 24.71924240597943 23.875560678460054 H 0.0 **** 0.06
14603 H 60.53820706008621 25.664452716075658 24.137181818377293 H 0.0 **** 0.06
14604 H 61.76041777792797 25.5502909145263 25.4267449230114 H 0.0 **** 0.06
14605 H 60.779641730051026 24.126763782028533 25.001716963391374 H 0.0 **** 0.06
14606 C 55.2606680905306 3.7129118645716233 13.075406813748991 C 0.0 **** -0.24
14607 H 55.997622081346634 3.6124147781951024 13.872551645697047 H 0.0 **** 0.06
14608 H 55.08877737987599 4.770537873590513 12.871657982172923 H 0.0 **** 0.06
14609 H 54.32581201859049 3.2450419473473744 13.382834104075393 H 0.0 **** 0.06
14610 H 55.63184725496405 3.2246727722660466 12.174388879144319 H 0.0 **** 0.06
14611 C 8.854105677022241 40.763128817652756 7.530606134840474 C 0.0 **** -0.24
14612 H 8.66034428759131 39.8698339152067 6.936562817812158 H 0.0 **** 0.06
14613 H 9.835622634500732 41.1624983238425 7.274832454238004 H 0.0 **** 0.06
14614 H 8.831156288067886 40.50630839037922 8.590073142418493 H 0.0 **** 0.06
14615 H 8.090800907638211 41.51237772303648 7.321666923873433 H 0.0 **** 0.06
14616 C 5.514234461980806 53.12927606084622 62.36433963018247 C 0.0 **** -0.24
14617 H 5.611576535223293 52.81198849610146 63.402181521143135 H 0.0 **** 0.06
14618 H 5.0021008950170085 54.091629552995386 62.32458086103837 H 0.0 **** 0.06
14619 H 4.9386543313542575 52.387851210297214 61.80993055384327 H 0.0 **** 0.06
14620 H 6.505075310424786 53.2277911582907 61.920303685026695 H 0.0 **** 0.06
14621 C 40.379153156441774 47.585803205718236 101.0885394472165 C 0.0 **** -0.24
14622 H 41.247811739735795 47.90484081997283 101.66464619123158 H 0.0 **** 0.06
14623 H 40.617474062461014 47.61684740980681 100.0248702510963 H 0.0 **** 0.06
14624 H 39.542430234882374 48.253744560246545 101.29280349405698 H 0.0 **** 0.06
14625 H 40.10984581855264 46.56830617700547 101.37093108509961 H 0.0 **** 0.06
14626 C 14.606778950434261 59.22711073293112 18.94942839198748 C 0.0 **** -0.24
14627 H 14.2715450238843 60.25759980164017 18.826386683210018 H 0.0 **** 0.06
14628 H 15.69669431585146 59.19866284000079 18.956908506557227 H 0.0 **** 0.06
14629 H 14.233355575926922 58.622768957743176 18.12248780892024 H 0.0 **** 0.06
14630 H 14.225617004119371 58.8311397873228 19.890515141787517 H 0.0 **** 0.06
14631 C 91.40138165865154 32.033622442631206 45.871287653507004 C 0.0 **** -0.24
14632 H 92.0808152459642 32.48717592801933 46.59285534881034 H 0.0 **** 0.06
14633 H 90.44943046766508 32.56536375461186 45.883931277273376 H 0.0 **** 0.06
14634 H 91.23706272248472 30.98871150428188 46.13382928827649 H 0.0 **** 0.06
14635 H 91.83821819849229 32.09323858361185 44.87453469966759 H 0.0 **** 0.06
14636 C 65.46748903433684 33.335547746701536 92.55427716999523 C 0.0 **** -0.24
14637 H 64.48540259073471 33.80180206775162 92.47663166747509 H 0.0 **** 0.06
14638 H 65.73000753025215 32.881735724237785 91.59771850685425 H 0.0 **** 0.06
14639 H 65.44377720272055 32.567761926078276 93.3266050267789 H 0.0 **** 0.06
14640 H 66.20815139373954 34.091191064435606 92.8144042801745 H 0.0 **** 0.06
14641 C 72.07934473098356 86.34721156756179 106.70778324604751 C 0.0 **** -0.24
14642 H 72.04579538688407 85.99523753607826 107.73901524999935 H 0.0 **** 0.06
14643 H 73.11564993750733 86.38950249597784 106.37294344667704 H 0.0 **** 0.06
14644 H 71.63739447349207 87.34160735133119 106.64959668427272 H 0.0 **** 0.06
14645 H 71.51924379128354 85.66231560069943 106.07248797564438 H 0.0 **** 0.06
14646 C 31.040498440757176 0.38929100337821865 78.80122242902814 C 0.0 **** -0.24
14647 H 32.12603995890322 0.37778758355921127 78.70767589901233 H 0.0 **** 0.06
14648 H 30.63514255057447 1.22457781070716 78.22876864610775 H 0.0 **** 0.06
14649 H 30.76847162399926 0.5019954858446454 79.85072460640318 H 0.0 **** 0.06
14650 H 30.63328003683762 -0.5463682094426758 78.41837558638417 H 0.0 **** 0.06
14651 C 45.81682925446211 5.9401156281748655 2.4223880627832273 C 0.0 **** -0.24
14652 H 46.550664240634795 6.120293386191932 1.638083399925236 H 0.0 **** 0.06
14653 H 45.442572148954895 4.91958558155693 2.3417732519960026 H 0.0 **** 0.06
14654 H 44.98863415400519 6.6409996885927995 2.313511260781951 H 0.0 **** 0.06
14655 H 46.284874679854184 6.079790608820161 3.396978284670027 H 0.0 **** 0.06
14656 C 84.05838309530054 101.48841062722781 43.8967349278486 C 0.0 **** -0.24
14657 H 84.72056145043882 101.60091468905624 44.755403306950164 H 0.0 **** 0.06
14658 H 83.02740088277665 101.4089684751255 44.24214823043804 H 0.0 **** 0.06
14659 H 84.32785887562085 100.58535730166 43.347300409749515 H 0.0 **** 0.06
14660 H 84.15829171154016 102.35472102473335 43.244349169393 H 0.0 **** 0.06
14661 C 65.93599678608015 105.71937679127782 61.25832469580672 C 0.0 **** -0.24
14662 H 65.88907921619841 106.69554749094414 61.740397497872834 H 0.0 **** 0.06
14663 H 66.41038676442165 105.00432296243592 61.931363278684444 H 0.0 **** 0.06
14664 H 66.51877050690635 105.79544278400766 60.339523013371206 H 0.0 **** 0.06
14665 H 64.9271132494535 105.38186832587557 61.02182155912777 H 0.0 **** 0.06
14666 C 38.807014482652136 77.21510803269676 0.0036783003569098582 C 0.0 **** -0.24
14667 H 38.532711886537584 76.29071528100413 -0.5054590812552533 H 0.0 **** 0.06
14668 H 39.67795165322559 77.65322890694495 -0.48525044454254385 H 0.0 **** 0.06
14669 H 39.04393923969582 76.9994423296968 1.0450022751999768 H 0.0 **** 0.06
14670 H 37.97311436493169 77.91524458084875 -0.04284157067650085 H 0.0 **** 0.06
14671 C 30.73288310315641 20.5757452550896 22.50294194820748 C 0.0 **** -0.24
14672 H 30.801613944015457 19.527251458523736 22.21259465715687 H 0.0 **** 0.06
14673 H 31.511245965332023 20.802157172825915 23.230233850901897 H 0.0 **** 0.06
14674 H 29.75429785981305 20.76588756455878 22.944909795141257 H 0.0 **** 0.06
14675 H 30.86163045732434 21.20567535624778 21.622469962572296 H 0.0 **** 0.06
14676 C 87.53569522282906 54.311004435173174 75.11745353286136 C 0.0 **** -0.24
14677 H 88.42592649829021 53.86464250022118 75.55902339539807 H 0.0 **** 0.06
14678 H 87.78404507571805 55.293380499603245 74.7136176687643 H 0.0 **** 0.06
14679 H 86.76507946627103 54.416605217080246 75.88152785544935 H 0.0 **** 0.06
14680 H 87.16735492051502 53.671049408033696 74.31596824362572 H 0.0 **** 0.06
14681 C 82.56439511760328 37.104255302856444 49.02832509002454 C 0.0 **** -0.24
14682 H 81.48229085967483 37.023919991081016 49.137473501989376 H 0.0 **** 0.06
14683 H 82.86242900920519 36.702969835042154 48.060167335453116 H 0.0 **** 0.06
14684 H 83.05248706957826 36.53957096608312 49.82213458453404 H 0.0 **** 0.06
14685 H 82.85812158209075 38.15175753838213 49.09510482481093 H 0.0 **** 0.06
14686 C 1.6065771637630633 36.82442878020987 16.678617596937613 C 0.0 **** -0.24
14687 H 1.0341341760071145 36.57033151238494 17.571188238414777 H 0.0 **** 0.06
14688 H 1.045068856163141 36.532176264945036 15.791079648444793 H 0.0 **** 0.06
14689 H 2.56015178498032 36.29649572813338 16.695817925110987 H 0.0 **** 0.06
14690 H 1.787196112022741 37.899048164532445 16.65729456696863 H 0.0 **** 0.06
14691 C 5.375394656195738 87.87041263676724 15.168546176522142 C 0.0 **** -0.24
14692 H 5.683719265103392 87.38536614892303 16.094752174963446 H 0.0 **** 0.06
14693 H 6.249328618101103 88.0364004304105 14.5377116155029 H 0.0 **** 0.06
14694 H 4.905474738325978 88.82648433012044 15.397966901268589 H 0.0 **** 0.06
14695 H 4.664108463397042 87.23159357896718 14.644548186906476 H 0.0 **** 0.06
14696 C 69.41119163774232 58.86217334496553 15.628562279868536 C 0.0 **** -0.24
14697 H 69.009263007267 58.333409226849625 16.49328976700366 H 0.0 **** 0.06
14698 H 70.1510706675214 58.234475874409384 15.131673334323565 H 0.0 **** 0.06
14699 H 69.88184666870075 59.78965132639567 15.957002856286419 H 0.0 **** 0.06
14700 H 68.6024794730353 59.090468861739254 14.935201304026052 H 0.0 **** 0.06
14701 C 76.92305660029172 76.17903797242661 78.3716034497133 C 0.0 **** -0.24
14702 H 76.4144154528143 75.55984444876364 79.10975737626393 H 0.0 **** 0.06
14703 H 77.82254599019956 75.66881322159816 78.02694528162387 H 0.0 **** 0.06
14704 H 77.19618696395202 77.13214319596031 78.82369847537353 H 0.0 **** 0.06
14705 H 76.25907799420094 76.35535102338423 77.52601266559225 H 0.0 **** 0.06
14706 C 40.98906269667528 75.12536836179892 100.48672546262009 C 0.0 **** -0.24
14707 H 41.86684950939089 75.37350176276743 101.083755489886 H 0.0 **** 0.06
14708 H 40.17041377410734 74.83863163519194 101.14625837730071 H 0.0 **** 0.06
14709 H 41.22552875277886 74.2974373753777 99.81837092164831 H 0.0 **** 0.06
14710 H 40.69324961067838 75.9942099872976 99.89772154825738 H 0.0 **** 0.06
14711 C 46.32484222088075 69.7515805813772 4.878433350200297 C 0.0 **** -0.24
14712 H 46.845764881474565 70.0167288025039 5.798300567118094 H 0.0 **** 0.06
14713 H 47.017802720730614 69.253323065519 4.200092046876561 H 0.0 **** 0.06
14714 H 45.940330379016956 70.65604692451166 4.406250101856563 H 0.0 **** 0.06
14715 H 45.497018591357715 69.08144048334316 5.110150836176523 H 0.0 **** 0.06
14716 C 7.78684074450203 104.09280545303241 72.76595412005945 C 0.0 **** -0.24
14717 H 8.048581702703501 104.77024138505455 71.95280409647326 H 0.0 **** 0.06
14718 H 7.2600391521419 103.22769443102642 72.36243864388094 H 0.0 **** 0.06
14719 H 7.142610035462681 104.61128532098024 73.47681991412107 H 0.0 **** 0.06
14720 H 8.694259695353722 103.76341766031523 73.27105627576475 H 0.0 **** 0.06
14721 C 76.63321825989351 16.059512680392686 5.479501387969288 C 0.0 **** -0.24
14722 H 75.67766757597698 16.582324525317517 5.439924037081383 H 0.0 **** 0.06
14723 H 76.9019073914781 15.8726117689136 6.520150223065867 H 0.0 **** 0.06
14724 H 77.4026636310507 16.672939341297592 5.010215461069022 H 0.0 **** 0.06
14725 H 76.55015599961166 15.11091646931925 4.9488210621775295 H 0.0 **** 0.06
14726 C 73.52216451835179 48.043412049019494 101.38112943760635 C 0.0 **** -0.24
14727 H 74.44335958530527 48.134327175574676 100.80540137152927 H 0.0 **** 0.06
14728 H 73.22718004965341 49.02500479752255 101.75186457373066 H 0.0 **** 0.06
14729 H 73.68507484054666 47.37061719416068 102.22316270449139 H 0.0 **** 0.06
14730 H 72.73404138662076 47.643622020797125 100.74267537312565 H 0.0 **** 0.06
14731 C 98.62154061353331 22.726769395556545 75.55713922581444 C 0.0 **** -0.24
14732 H 99.13662872484005 22.48261131029051 76.48629087174157 H 0.0 **** 0.06
14733 H 98.76680608143303 23.781921064319675 75.3290065169872 H 0.0 **** 0.06
14734 H 97.55607960915462 22.521236603942867 75.6675017980905 H 0.0 **** 0.06
14735 H 99.02572970922324 22.119655220188832 74.74731440211787 H 0.0 **** 0.06
14736 C 54.78643104272269 84.29517937949464 55.382115903929304 C 0.0 **** -0.24
14737 H 55.631226070852804 83.60648877153136 55.37170853817361 H 0.0 **** 0.06
14738 H 54.02987080397824 83.93140006622488 56.07665235184305 H 0.0 **** 0.06
14739 H 54.360510902358335 84.361469283177 54.38183778776724 H 0.0 **** 0.06
14740 H 55.12691752453281 85.28140344069462 55.69787494484774 H 0.0 **** 0.06
14741 C 37.238125873223936 12.693638191099861 38.66535042794419 C 0.0 **** -0.24
14742 H 36.48400857753407 12.741679725213615 37.879626663130864 H 0.0 **** 0.06
14743 H 38.20196878414487 12.431571185146625 38.22757252664127 H 0.0 **** 0.06
14744 H 36.95192972044424 11.9362925475673 39.396240377456934 H 0.0 **** 0.06
14745 H 37.31231250071406 13.663475118971977 39.15730610190883 H 0.0 **** 0.06
14746 C 4.405853484016476 32.183273225995094 51.00711639614764 C 0.0 **** -0.24
14747 H 3.622004084657961 31.697482532185205 50.42647605736511 H 0.0 **** 0.06
14748 H 5.380635529813803 31.894103946172095 50.61430117368826 H 0.0 **** 0.06
14749 H 4.328112446687928 31.87722780942181 52.04987293189885 H 0.0 **** 0.06
14750 H 4.2917221430787125 33.265177975132076 50.93726030930685 H 0.0 **** 0.06
14751 C 16.004229729902477 24.90661475464492 72.05519146917459 C 0.0 **** -0.24
14752 H 16.411207193974178 24.087607048050984 71.46072742036165 H 0.0 **** 0.06
14753 H 16.657218460803534 25.094111051402308 72.90780309318257 H 0.0 **** 0.06
14754 H 15.009548394219479 24.638125088683353 72.41144427322513 H 0.0 **** 0.06
14755 H 15.941468081594536 25.80471162006802 71.44070249156516 H 0.0 **** 0.06
14756 C 84.01494845904082 104.95779647998779 26.96618608321171 C 0.0 **** -0.24
14757 H 84.26321817752506 104.30071122516041 27.799631833537205 H 0.0 **** 0.06
14758 H 84.65858517150457 105.83752287626457 26.994168171507425 H 0.0 **** 0.06
14759 H 82.97268680547683 105.26666732392283 27.04469177734211 H 0.0 **** 0.06
14760 H 84.16623906451359 104.42533287067646 26.026721125863645 H 0.0 **** 0.06
14761 C 46.553600659869915 74.37205153453095 74.49330496220846 C 0.0 **** -0.24
14762 H 46.530621402073166 73.81613731530052 75.43042609967256 H 0.0 **** 0.06
14763 H 45.83742723566945 73.93714650295902 73.79545254898834 H 0.0 **** 0.06
14764 H 47.554887326723076 74.32187021638856 74.06548308995065 H 0.0 **** 0.06
14765 H 46.29146667501391 75.41305210347599 74.68185811022242 H 0.0 **** 0.06
14766 C 13.612743823798269 14.985051024205244 105.3768575443055 C 0.0 **** -0.24
14767 H 12.606033168464705 15.224075376566919 105.03649796048273 H 0.0 **** 0.06
14768 H 13.943330029501283 15.738617602077483 106.09198753366434 H 0.0 **** 0.06
14769 H 14.2907661574381 14.969284617420332 104.52431031231208 H 0.0 **** 0.06
14770 H 13.610415441561429 14.00593007830798 105.85651626599034 H 0.0 **** 0.06
14771 C 7.499405371803995 31.330271186229993 23.577504684991453 C 0.0 **** -0.24
14772 H 7.2759829713862985 31.66660967879608 24.58989174067628 H 0.0 **** 0.06
14773 H 8.560402820825429 31.47497880155956 23.373076598969135 H 0.0 **** 0.06
14774 H 6.910160870677265 31.907048088192596 22.864683511372363 H 0.0 **** 0.06
14775 H 7.251721329950511 30.273958094816862 23.48291672066094 H 0.0 **** 0.06
14776 C 62.39492610407909 59.739359490256334 78.15434590372772 C 0.0 **** -0.24
14777 H 62.40407988057285 60.797050513112254 77.89043184276744 H 0.0 **** 0.06
14778 H 62.14559220156647 59.63032829191627 79.20988108317536 H 0.0 **** 0.06
14779 H 63.37881478872957 59.310543458242535 77.96650678962865 H 0.0 **** 0.06
14780 H 61.6503418140601 59.221828064296915 77.54886493790852 H 0.0 **** 0.06
14781 C 87.47689592098344 95.7312599931401 81.85225894778173 C 0.0 **** -0.24
14782 H 88.20929010707965 96.50481280563683 82.082943808647 H 0.0 **** 0.06
14783 H 86.47184678153701 96.1410624960097 81.957567501674 H 0.0 **** 0.06
14784 H 87.60356760437539 94.89583360006756 82.54052976301803 H 0.0 **** 0.06
14785 H 87.62360176270356 95.38467701909289 80.82990955189406 H 0.0 **** 0.06
14786 C 86.56506824884863 66.71439227255856 17.085962655617067 C 0.0 **** -0.24
14787 H 87.52445056543604 66.80992439228523 16.578570459525295 H 0.0 **** 0.06
14788 H 85.7890600305507 66.48577406592906 16.35505520961189 H 0.0 **** 0.06
14789 H 86.32549105681332 67.65226098013875 17.58907184483894 H 0.0 **** 0.06
14790 H 86.62159511591778 65.912025103869 17.821400168842587 H 0.0 **** 0.06
14791 C 30.65452476012112 28.868967957562575 62.02179012549689 C 0.0 **** -0.24
14792 H 30.741496726926044 28.763260943486046 63.103045691903304 H 0.0 **** 0.06
14793 H 31.228523029996907 29.735961598750293 61.69481502270226 H 0.0 **** 0.06
14794 H 29.606626370187705 29.002757316652662 61.75295916313837 H 0.0 **** 0.06
14795 H 31.04212148388524 27.97206072257049 61.53743596509342 H 0.0 **** 0.06
14796 C 97.9850360977828 32.15096344401185 12.892501395649305 C 0.0 **** -0.24
14797 H 98.47859814647788 32.55942172540526 13.774314324020793 H 0.0 **** 0.06
14798 H 98.72596894566743 31.675394349279912 12.248926757306606 H 0.0 **** 0.06
14799 H 97.49159988208687 32.95553858137049 12.347083880546762 H 0.0 **** 0.06
14800 H 97.24404631201264 31.413083535882507 13.200587587844751 H 0.0 **** 0.06
14801 C 45.18775701894806 94.35407593513905 66.55492808485988 C 0.0 **** -0.24
14802 H 44.40886130413532 93.67240508456094 66.21169336480116 H 0.0 **** 0.06
14803 H 46.05277298095408 93.77920661749158 66.88720117707479 H 0.0 **** 0.06
14804 H 44.80818966894622 94.95171251934453 67.38333548435801 H 0.0 **** 0.06
14805 H 45.480351092932395 95.01127262588476 65.73631651415977 H 0.0 **** 0.06
14806 C 78.70355383020177 70.28082101711584 7.641016723828031 C 0.0 **** -0.24
14807 H 79.61742311713681 69.86281786042514 7.218758510771934 H 0.0 **** 0.06
14808 H 78.84453985257556 71.34567065316935 7.827815888052129 H 0.0 **** 0.06
14809 H 78.47139329954382 69.7747651641827 8.577779576402833 H 0.0 **** 0.06
14810 H 77.88182017691759 70.14006287657529 6.9382723226948 H 0.0 **** 0.06
14811 C 48.688826623748476 24.507581783413755 82.2355027706702 C 0.0 **** -0.24
14812 H 49.12586815842908 25.50483948558811 82.28004996505194 H 0.0 **** 0.06
14813 H 49.093100288433 23.972370153176545 81.37594995054164 H 0.0 **** 0.06
14814 H 47.60635372972431 24.59122013467591 82.135754114804 H 0.0 **** 0.06
14815 H 48.928604421882966 23.964169755359123 83.14929140520914 H 0.0 **** 0.06
14816 C 2.447126738700689 83.43096010618308 87.34364577509211 C 0.0 **** -0.24
14817 H 1.945071451019004 83.73869484950762 86.42666131451205 H 0.0 **** 0.06
14818 H 3.4730836089595414 83.80052218376977 87.3376350370691 H 0.0 **** 0.06
14819 H 2.4527232035752036 82.34254499179428 87.40687513584129 H 0.0 **** 0.06
14820 H 1.9173287017047755 83.8431458908127 88.20253379690001 H 0.0 **** 0.06
14821 C 59.59182722661919 39.68540490339561 95.1729999326392 C 0.0 **** -0.24
14822 H 58.51321877372632 39.6754319322246 95.01672759373602 H 0.0 **** 0.06
14823 H 59.854525782543504 38.95260453431197 95.93601094121478 H 0.0 **** 0.06
14824 H 59.90178699525987 40.6782185590522 95.49965833323843 H 0.0 **** 0.06
14825 H 60.09621237774721 39.43551515591844 94.23887601038227 H 0.0 **** 0.06
14826 C 38.874466412600015 102.41262432988678 92.05675110882923 C 0.0 **** -0.24
14827 H 38.471712580594584 101.50621591910206 92.50804793038755 H 0.0 **** 0.06
14828 H 38.41965613744554 102.56421917214334 91.07728933099365 H 0.0 **** 0.06
14829 H 39.95437255811069 102.31336045636512 91.94436278985596 H 0.0 **** 0.06
14830 H 38.65331983083331 103.2667869743124 92.6960538792798 H 0.0 **** 0.06
14831 C 40.805889798550524 7.6403973998549475 99.32978453720727 C 0.0 **** -0.24
14832 H 41.49517993994297 6.951657831710591 98.84205758351123 H 0.0 **** 0.06
14833 H 41.30194532086897 8.109906835485589 100.1800301352099 H 0.0 **** 0.06
14834 H 39.93021377767094 7.090910207465342 99.67755473743478 H 0.0 **** 0.06
14835 H 40.49477987351253 8.406834397057963 98.62080950665438 H 0.0 **** 0.06
14836 C 32.71184695425333 43.464797724528125 64.97189426834478 C 0.0 **** -0.24
14837 H 33.26095608603336 42.534373609208615 64.82814857722587 H 0.0 **** 0.06
14838 H 33.081147082070785 43.97013164146529 65.8652110271525 H 0.0 **** 0.06
14839 H 31.65072179093967 43.24618260887797 65.09059353327518 H 0.0 **** 0.06
14840 H 32.856640761940554 44.10858023618658 64.10491878394146 H 0.0 **** 0.06
14841 C 46.15127416394441 77.35699876698908 17.109929544651294 C 0.0 **** -0.24
14842 H 45.5718537149134 76.84422738599551 17.87813927764614 H 0.0 **** 0.06
14843 H 47.11919105365388 77.6466951676108 17.51812749367629 H 0.0 **** 0.06
14844 H 45.61302612177178 78.24668724885925 16.78291553602064 H 0.0 **** 0.06
14845 H 46.298820189294844 76.69004099768523 16.260666805566615 H 0.0 **** 0.06
14846 C 6.32957375605676 37.13750654081048 68.97609340085894 C 0.0 **** -0.24
14847 H 6.1109885283086385 38.09110237201281 69.45550360467631 H 0.0 **** 0.06
14848 H 7.347224887676219 36.83202077068289 69.22124716649381 H 0.0 **** 0.06
14849 H 6.23149213373074 37.24301744755299 67.8957864361569 H 0.0 **** 0.06
14850 H 5.628032319627664 36.38315687377799 69.33143812241248 H 0.0 **** 0.06
14851 C 30.215542740138268 26.526915373226302 32.99048278445646 C 0.0 **** -0.24
14852 H 29.821178416776668 27.389520234335464 33.52699868517094 H 0.0 **** 0.06
14853 H 30.189651630504123 26.72360590579791 31.918287265147654 H 0.0 **** 0.06
14854 H 29.60669456868859 25.650199926167886 33.21427442064633 H 0.0 **** 0.06
14855 H 31.243524950986064 26.344684510662546 33.303158617618244 H 0.0 **** 0.06
14856 C 81.3705101505017 44.19819005113726 82.80586181334394 C 0.0 **** -0.24
14857 H 81.44756886421891 44.40009641064483 83.87440076970836 H 0.0 **** 0.06
14858 H 80.92520206650588 45.057223587938495 82.30523646120696 H 0.0 **** 0.06
14859 H 80.74520869438803 43.31972690855663 82.64793688793151 H 0.0 **** 0.06
14860 H 82.36518308444852 44.01356933033448 82.39872706593894 H 0.0 **** 0.06
14861 C 86.33204020510192 45.023599340292265 4.743365669495432 C 0.0 **** -0.24
14862 H 87.08596874015784 44.83981740144236 5.509240136989405 H 0.0 **** 0.06
14863 H 85.35812038622815 44.693405672957624 5.105957834339108 H 0.0 **** 0.06
14864 H 86.58976564145861 44.471321144433375 3.839771682961839 H 0.0 **** 0.06
14865 H 86.29475155265027 46.08942193245116 4.5192776470125295 H 0.0 **** 0.06
14866 C 56.09031650954318 93.1836974610824 80.94499629012168 C 0.0 **** -0.24
14867 H 56.379611164968864 93.7678992900143 80.07118134825302 H 0.0 **** 0.06
14868 H 56.743616080177034 93.43537334453086 81.7816262677839 H 0.0 **** 0.06
14869 H 56.18238902144209 92.12170322705961 80.71843154118645 H 0.0 **** 0.06
14870 H 55.05821595261867 93.41081841728993 81.20810866937018 H 0.0 **** 0.06
14871 C 79.68425403940338 45.15083964957458 8.552756499605039 C 0.0 **** -0.24
14872 H 79.98968074558516 44.70334059089896 7.606574244909837 H 0.0 **** 0.06
14873 H 80.30139174393733 44.752405640109004 9.358602726988238 H 0.0 **** 0.06
14874 H 78.63725917517903 44.91461394785128 8.745190701837998 H 0.0 **** 0.06
14875 H 79.8088192356094 46.23202882478233 8.499229384954276 H 0.0 **** 0.06
14876 C 3.9534759328612523 45.00780681492887 3.044929683845927 C 0.0 **** -0.24
14877 H 3.6965386881490474 44.86352857518534 1.9957148679736374 H 0.0 **** 0.06
14878 H 3.0692430289349204 44.844533758299406 3.6617617757026046 H 0.0 **** 0.06
14879 H 4.317618159464871 46.02469868185074 3.193216914000633 H 0.0 **** 0.06
14880 H 4.731419353961229 44.29873269009579 3.3293266975076 H 0.0 **** 0.06
14881 C 97.97312503812685 80.75774420155943 69.7355099631088 C 0.0 **** -0.24
14882 H 97.42237239772008 80.26624518138448 70.53684566088691 H 0.0 **** 0.06
14883 H 98.9702165737253 80.32285324878518 69.66052279832775 H 0.0 **** 0.06
14884 H 98.05590238145477 81.82292499451259 69.9525388051087 H 0.0 **** 0.06
14885 H 97.44400879960726 80.61895338155543 68.79213258811183 H 0.0 **** 0.06
14886 C 1.3513435312938071 13.121706808316617 103.93043080221844 C 0.0 **** -0.24
14887 H 1.8780487890618645 12.299637372850157 103.44587315049398 H 0.0 **** 0.06
14888 H 1.9667593138963468 13.522207055141763 104.7359385107045 H 0.0 **** 0.06
14889 H 0.4081738792137486 12.758583058803936 104.3386768759932 H 0.0 **** 0.06
14890 H 1.15308520157717 13.906539845746693 103.19965347588436 H 0.0 **** 0.06
14891 C 31.48428777764127 35.89189350543461 100.1041296945465 C 0.0 **** -0.24
14892 H 32.44335516477588 35.99193311252307 100.61263490073263 H 0.0 **** 0.06
14893 H 30.76215506387041 35.43291447909044 100.77905064085996 H 0.0 **** 0.06
14894 H 31.605043589839198 35.266843646104135 99.21971893903074 H 0.0 **** 0.06
14895 H 31.127326560703096 36.877791739162106 99.80602220052187 H 0.0 **** 0.06
14896 C 21.829512747648124 93.26492328157973 54.52883400600087 C 0.0 **** -0.24
14897 H 22.595640913658244 92.62644584987657 54.96784069646607 H 0.0 **** 0.06
14898 H 20.925378221882255 93.217753597055 55.136854191471095 H 0.0 **** 0.06
14899 H 21.606692846224348 92.92162166783076 53.51874936313793 H 0.0 **** 0.06
14900 H 22.190070886722523 94.29291167009863 54.49181495581029 H 0.0 **** 0.06
14901 C 86.66724574020074 41.53831503919747 52.08535309986149 C 0.0 **** -0.24
14902 H 86.60084283602404 42.537793409020196 52.51615396932539 H 0.0 **** 0.06
14903 H 87.27888719264737 40.90555738038054 52.72824902637018 H 0.0 **** 0.06
14904 H 87.12046214401471 41.59832946313645 51.096328921782344 H 0.0 **** 0.06
14905 H 85.66714970426096 41.1125515742946 52.0018479284758 H 0.0 **** 0.06
14906 C 38.021784044650815 37.53792470987551 16.14021313361802 C 0.0 **** -0.24
14907 H 37.1388230864261 38.177602602671925 16.15169727657704 H 0.0 **** 0.06
14908 H 38.646799154939174 37.79937026981648 15.286064399620585 H 0.0 **** 0.06
14909 H 37.71368936202873 36.49569390761593 16.06064366191427 H 0.0 **** 0.06
14910 H 38.5861981877886 37.68165673859636 17.0617642735656 H 0.0 **** 0.06
14911 C 63.92170902903655 19.31205215095305 1.509087337509797 C 0.0 **** -0.24
14912 H 64.84088296749529 19.872916201414718 1.3394244331564806 H 0.0 **** 0.06
14913 H 64.12622079169245 18.2442693486801 1.4212374253900322 H 0.0 **** 0.06
14914 H 63.177624000121966 19.601892773207307 0.7671091739009057 H 0.0 **** 0.06
14915 H 63.54335675449586 19.528522329534706 2.5083100062213077 H 0.0 **** 0.06
14916 C 37.619846239088645 105.08257965074223 67.9502355533653 C 0.0 **** -0.24
14917 H 37.56740509141656 105.26341490699026 66.8759356366516 H 0.0 **** 0.06
14918 H 38.05823893028196 105.95019578280454 68.44299085460602 H 0.0 **** 0.06
14919 H 38.23758127508205 104.20478708387374 68.1403627465665 H 0.0 **** 0.06
14920 H 36.61529863597903 104.9126987936361 68.33871122949915 H 0.0 **** 0.06
14921 C 8.381306692617386 39.452716636008766 0.6968559445285223 C 0.0 **** -0.24
14922 H 7.479586388010716 39.2540225744926 0.1176825113680593 H 0.0 **** 0.06
14923 H 9.251280972899963 39.09070664443361 0.15020965884377802 H 0.0 **** 0.06
14924 H 8.315575079726614 38.94127567380136 1.6570018653780494 H 0.0 **** 0.06
14925 H 8.475974957139442 40.52588753219154 0.8627651313896649 H 0.0 **** 0.06
14926 C 38.38432311992477 8.976507936345001 1.2086602155783623 C 0.0 **** -0.24
14927 H 39.448904364730765 9.184565714385911 1.3080552240728593 H 0.0 **** 0.06
14928 H 37.835905116527215 9.91560911151086 1.134833495502079 H 0.0 **** 0.06
14929 H 38.040094359528894 8.42134869658409 2.0811334112613906 H 0.0 **** 0.06
14930 H 38.212747943490285 8.383162995806543 0.31037102926657667 H 0.0 **** 0.06
14931 C 73.12280151798366 24.957607751525572 23.268975919515555 C 0.0 **** -0.24
14932 H 72.35897911650936 24.212269797743613 23.49168964102779 H 0.0 **** 0.06
14933 H 73.5536720952954 24.753871081687386 22.288127983426676 H 0.0 **** 0.06
14934 H 73.90502464625476 24.913658906443217 24.026489062739543 H 0.0 **** 0.06
14935 H 72.67245801351136 25.950373272048534 23.268711586321032 H 0.0 **** 0.06
14936 C 35.87139325208801 55.407092077985396 87.68301543575754 C 0.0 **** -0.24
14937 H 36.86756476827199 55.673892533221135 88.03506728714618 H 0.0 **** 0.06
14938 H 35.667014567996034 55.9234432193216 86.7448163189298 H 0.0 **** 0.06
14939 H 35.13198693943713 55.70211740397605 88.42906581791848 H 0.0 **** 0.06
14940 H 35.817132580738615 54.33060239846674 87.52502051871485 H 0.0 **** 0.06
14941 C 66.25364264536915 21.559449856451295 31.46036664009963 C 0.0 **** -0.24
14942 H 65.2404827487025 21.930558213231336 31.30322226156074 H 0.0 **** 0.06
14943 H 66.9121995759167 22.393131579884653 31.70290165792037 H 0.0 **** 0.06
14944 H 66.60602960729483 21.069138541405437 30.553196355778518 H 0.0 **** 0.06
14945 H 66.25398833221357 20.84424304663554 32.283550614264264 H 0.0 **** 0.06
14946 C 17.91520382418824 26.604749378868938 52.80115275076537 C 0.0 **** -0.24
14947 H 18.986879898034374 26.46746311507433 52.948379187593616 H 0.0 **** 0.06
14948 H 17.38781296821189 26.36499203437432 53.725195537372144 H 0.0 **** 0.06
14949 H 17.571215696307036 25.944699750326123 52.00444051128824 H 0.0 **** 0.06
14950 H 17.715634497288477 27.640274041271255 52.52669613258462 H 0.0 **** 0.06
14951 C 51.778893215552245 54.51336267895283 15.159527460556252 C 0.0 **** -0.24
14952 H 51.053587167418385 55.30894231357857 15.329632962623375 H 0.0 **** 0.06
14953 H 52.141135463494976 54.56594294742203 14.132714631040969 H 0.0 **** 0.06
14954 H 51.30471414072895 53.54664407363771 15.329377561302383 H 0.0 **** 0.06
14955 H 52.61616170474639 54.6324225080962 15.847706923174059 H 0.0 **** 0.06
14956 C 43.59329767494833 4.817141375494948 77.15523645760516 C 0.0 **** -0.24
14957 H 43.28262791303868 3.8261895462060522 76.82406507945848 H 0.0 **** 0.06
14958 H 44.6754621061493 4.8303057708632835 77.29294501638668 H 0.0 **** 0.06
14959 H 43.10324923419009 5.053854484250969 78.09956062287847 H 0.0 **** 0.06
14960 H 43.31350983043825 5.555819073731138 76.40508669881729 H 0.0 **** 0.06
14961 C 70.75244613232613 33.0975431291034 34.75196725644863 C 0.0 **** -0.24
14962 H 71.34294027079727 33.76055833921909 35.38343551473646 H 0.0 **** 0.06
14963 H 71.36632182029726 32.25505166618828 34.43529009049459 H 0.0 **** 0.06
14964 H 70.40631885309907 33.64538700895281 33.87477528371564 H 0.0 **** 0.06
14965 H 69.89244376808517 32.73150705021234 35.31368451293718 H 0.0 **** 0.06
14966 C 54.277055259237585 37.01784958053548 18.289628232652092 C 0.0 **** -0.24
14967 H 55.07943101303775 37.4736453125866 17.70972126085462 H 0.0 **** 0.06
14968 H 54.40068954690719 35.93462941627274 18.292689542762616 H 0.0 **** 0.06
14969 H 53.31612131139212 37.27349262814863 17.84334998024883 H 0.0 **** 0.06
14970 H 54.31235057178759 37.39099462165615 19.312803043094448 H 0.0 **** 0.06
14971 C 69.26052999666015 82.07872272643318 45.453798809504704 C 0.0 **** -0.24
14972 H 69.36257215865984 81.00955931348155 45.63926226259121 H 0.0 **** 0.06
14973 H 68.364795634172 82.45072430547495 45.95150806182381 H 0.0 **** 0.06
14974 H 69.18110032906591 82.25556279828007 44.38143590524539 H 0.0 **** 0.06
14975 H 70.13568086517492 82.599218917938 45.84435026068812 H 0.0 **** 0.06
14976 C 60.39884939646436 56.51817320263237 4.1407128883620175 C 0.0 **** -0.24
14977 H 61.35337139986126 56.93946958386948 3.8247020844629844 H 0.0 **** 0.06
14978 H 60.01613639586395 57.08275831385896 4.991123455918668 H 0.0 **** 0.06
14979 H 60.53974452580172 55.476291802063685 4.429917761469952 H 0.0 **** 0.06
14980 H 59.68658984649022 56.57333586889462 3.3174267148559977 H 0.0 **** 0.06
14981 C 27.603968178030726 50.7428456288187 65.64057837670266 C 0.0 **** -0.24
14982 H 27.7197210915823 50.52007068210237 64.5794575848358 H 0.0 **** 0.06
14983 H 28.193191329202676 50.03610742192279 66.22595855142052 H 0.0 **** 0.06
14984 H 26.553743689810858 50.65809250621497 65.91747200425661 H 0.0 **** 0.06
14985 H 27.951561966376104 51.757025922522736 65.83872383438805 H 0.0 **** 0.06
14986 C 33.2452536739394 50.92407220665382 80.5218895223386 C 0.0 **** -0.24
14987 H 34.328420220339225 50.90142821819927 80.39676058695352 H 0.0 **** 0.06
14988 H 32.990969016122705 50.617739228815594 81.53597288666549 H 0.0 **** 0.06
14989 H 32.78356567753595 50.24039813037865 79.80881960879475 H 0.0 **** 0.06
14990 H 32.88078495750153 51.93630946877653 80.34445495423205 H 0.0 **** 0.06
14991 C 83.66083989628885 4.485948111892242 74.58750071557878 C 0.0 **** -0.24
14992 H 84.17466152694965 3.8306813238941118 75.29090918782043 H 0.0 **** 0.06
14993 H 84.21799276573014 5.417271596921296 74.48550582645592 H 0.0 **** 0.06
14994 H 82.658278221079 4.700280281438836 74.95703622641022 H 0.0 **** 0.06
14995 H 83.59331349387924 3.9941030678717198 73.6162451243537 H 0.0 **** 0.06
14996 C 65.43948710963384 103.1718790659504 49.88805168353156 C 0.0 **** -0.24
14997 H 64.67039937763327 102.4525722615445 49.60891295515171 H 0.0 **** 0.06
14998 H 65.95189560068877 103.5220878972612 48.99119490166362 H 0.0 **** 0.06
14999 H 66.15833496219366 102.69548984572964 50.55491433539578 H 0.0 **** 0.06
15000 H 64.9780233789617 104.01801748185471 50.397465785663826 H 0.0 **** 0.06
15001 C 37.30007064331842 83.77070030399659 26.565145827656096 C 0.0 **** -0.24
15002 H 37.02482810032231 83.74636308132264 27.620159576073917 H 0.0 **** 0.06
15003 H 36.41728560638835 83.58000174347683 25.955453025877617 H 0.0 **** 0.06
15004 H 38.05088615712182 83.00443280308835 26.36883497829764 H 0.0 **** 0.06
15005 H 37.708325043418206 84.75029830657371 26.318373132715863 H 0.0 **** 0.06
15006 C 34.8213147962785 51.327215245055555 69.77767092251744 C 0.0 **** -0.24
15007 H 35.607605578176475 51.37704977239446 69.02471938777943 H 0.0 **** 0.06
15008 H 34.98622300513887 52.10269558410019 70.52732440655731 H 0.0 **** 0.06
15009 H 34.83987821524184 50.34882975106308 70.25821327274724 H 0.0 **** 0.06
15010 H 33.852299961239 51.48116733954757 69.30300819549382 H 0.0 **** 0.06
15011 C 50.19618900063903 1.995857188130671 11.084810555680008 C 0.0 **** -0.24
15012 H 49.253196241753294 2.3174464966227646 10.64244680084687 H 0.0 **** 0.06
15013 H 50.89270949435351 2.8338242836919534 11.102700078045757 H 0.0 **** 0.06
15014 H 50.61744654416835 1.185365004283156 10.491223877375887 H 0.0 **** 0.06
15015 H 50.019345949112356 1.6475565903746912 12.102444054962746 H 0.0 **** 0.06
15016 C 24.542981963876457 107.00411019763774 10.068253796643575 C 0.0 **** -0.24
15017 H 23.583676922426207 107.40115894364965 10.398571504814115 H 0.0 **** 0.06
15018 H 25.319395846086962 107.29288289153106 10.777427660811199 H 0.0 **** 0.06
15019 H 24.782961852301412 107.40524459012784 9.083237761413159 H 0.0 **** 0.06
15020 H 24.487195391940162 105.9166906213731 10.013479227398363 H 0.0 **** 0.06
15021 C 47.49365732417917 83.2715693610746 80.51191885704469 C 0.0 **** -0.24
15022 H 47.07924378353343 82.939096356845 79.56013430726631 H 0.0 **** 0.06
15023 H 46.81743378431128 83.99341103493103 80.97023429685453 H 0.0 **** 0.06
15024 H 48.462886288645336 83.73976627201708 80.34133586757417 H 0.0 **** 0.06
15025 H 47.61505794306558 82.41486973025354 81.17367959201829 H 0.0 **** 0.06
15026 C 94.7433107309735 32.827995493907565 72.81784661820036 C 0.0 **** -0.24
15027 H 94.1382965665667 32.859812550827066 73.72398691912991 H 0.0 **** 0.06
15028 H 95.72523882482241 33.256702724097735 73.02179294443808 H 0.0 **** 0.06
15029 H 94.25180666847683 33.40220410760097 72.03302250281227 H 0.0 **** 0.06
15030 H 94.8584336483475 31.793710231335417 72.49493273094906 H 0.0 **** 0.06
15031 C 93.08236633661383 74.70786392803757 89.40244506400967 C 0.0 **** -0.24
15032 H 93.40440726227664 74.31067878296875 88.44045064894311 H 0.0 **** 0.06
15033 H 92.20732039421543 74.15594867959425 89.74827153466913 H 0.0 **** 0.06
15034 H 92.82784504982098 75.76194536519819 89.29355094860983 H 0.0 **** 0.06
15035 H 93.88914431267483 74.60077739112234 90.12759158887002 H 0.0 **** 0.06
15036 C 36.6955443160079 87.95621519207111 59.074815751417816 C 0.0 **** -0.24
15037 H 36.694394528135064 87.13686183461112 58.35695476577092 H 0.0 **** 0.06
15038 H 35.722897350334875 88.4496832218083 59.0633718065431 H 0.0 **** 0.06
15039 H 37.470818139797416 88.67396086993932 58.80734550816584 H 0.0 **** 0.06
15040 H 36.89213162501747 87.56334380775007 60.07270063619353 H 0.0 **** 0.06
15041 C 72.83278768240345 55.43630834998447 35.76539566610094 C 0.0 **** -0.24
15042 H 73.56000636447891 54.73087365400886 35.363187271702884 H 0.0 **** 0.06
15043 H 72.61904228525245 55.18433682756114 36.803800180151256 H 0.0 **** 0.06
15044 H 71.91345140737613 55.38216621411584 35.18133385247876 H 0.0 **** 0.06
15045 H 73.23872212243438 56.44691004912846 35.7112367689453 H 0.0 **** 0.06
15046 C 4.385396325163384 9.452369094141403 71.40446822024124 C 0.0 **** -0.24
15047 H 3.3855251104954505 9.659464257988077 71.02275384372116 H 0.0 **** 0.06
15048 H 4.950888519617223 10.382937056396145 71.46438991388446 H 0.0 **** 0.06
15049 H 4.895079863986979 8.760849767657547 70.7340508965431 H 0.0 **** 0.06
15050 H 4.310749782800258 9.007826277191143 72.39661450945135 H 0.0 **** 0.06
15051 C 55.66036478635795 37.536974460989995 73.71700230098031 C 0.0 **** -0.24
15052 H 55.558777025376735 36.616543110471866 73.14173212179531 H 0.0 **** 0.06
15053 H 56.33179850524721 37.3665996022128 74.5589790862328 H 0.0 **** 0.06
15054 H 54.682183232502204 37.84251853359811 74.08909556866683 H 0.0 **** 0.06
15055 H 56.06836011491592 38.32102626795262 73.0788500476063 H 0.0 **** 0.06
15056 C 98.12279229092252 69.88602581817526 88.5250597673549 C 0.0 **** -0.24
15057 H 98.87038162516289 70.3183101716534 89.19084740254422 H 0.0 **** 0.06
15058 H 97.8337070612934 70.62367258509278 87.77586838661513 H 0.0 **** 0.06
15059 H 97.24705209138166 69.59246840274531 89.10445935846126 H 0.0 **** 0.06
15060 H 98.54139573634316 69.00972780137502 88.0294170733698 H 0.0 **** 0.06
15061 C 38.678059962871004 48.772103790851425 36.05258022795505 C 0.0 **** -0.24
15062 H 38.74776500274396 48.586814420482135 34.980867230866494 H 0.0 **** 0.06
15063 H 38.341255656329594 49.79475216836854 36.223576953121466 H 0.0 **** 0.06
15064 H 39.656892838558264 48.63018822553093 36.51012460608274 H 0.0 **** 0.06
15065 H 37.965639549341546 48.07605728633762 36.496157906184976 H 0.0 **** 0.06
15066 C 65.04058084666053 47.77517671308776 92.43188808946132 C 0.0 **** -0.24
15067 H 65.81103858550793 47.033568802848364 92.64361267888226 H 0.0 **** 0.06
15068 H 65.49602960001545 48.64675421201318 91.96240350419076 H 0.0 **** 0.06
15069 H 64.55933425658867 48.07424016658515 93.36361633634792 H 0.0 **** 0.06
15070 H 64.29749790048174 47.34508757146798 91.76024325796023 H 0.0 **** 0.06
15071 C 63.28433443609458 39.74752447496025 106.8983965389591 C 0.0 **** -0.24
15072 H 62.78880875592165 39.78616225582957 107.86815171426491 H 0.0 **** 0.06
15073 H 64.26224527087044 40.2240373133046 106.97035932184923 H 0.0 **** 0.06
15074 H 62.677800429421495 40.2725008092708 106.15915291187605 H 0.0 **** 0.06
15075 H 63.40714377849088 38.707454985113856 106.59387216198144 H 0.0 **** 0.06
15076 C 71.59355020006693 63.197702770635544 15.302592042902802 C 0.0 **** -0.24
15077 H 71.77393091666612 62.1225701177372 15.327955964608066 H 0.0 **** 0.06
15078 H 70.76122414863701 63.441852807217344 15.962072727710833 H 0.0 **** 0.06
15079 H 71.35189605522802 63.50083083504005 14.28391773159791 H 0.0 **** 0.06
15080 H 72.48898646276236 63.72353502479886 15.635182008058706 H 0.0 **** 0.06
15081 C 100.71591635419085 18.824348223605078 1.580211953189476 C 0.0 **** -0.24
15082 H 100.04134073627591 19.411006139068753 2.2044434561000372 H 0.0 **** 0.06
15083 H 101.74206883233701 18.973347892743856 1.9163843822013007 H 0.0 **** 0.06
15084 H 100.6230366222636 19.14556198383217 0.5431363786208578 H 0.0 **** 0.06
15085 H 100.45675855865804 17.76919194551482 1.658570785235895 H 0.0 **** 0.06
15086 C 13.214345707047869 26.892440597417504 3.31040201123641 C 0.0 **** -0.24
15087 H 13.715555440880763 27.858008906501652 3.245538047338272 H 0.0 **** 0.06
15088 H 12.769593654074555 26.779678775126897 4.300103066470124 H 0.0 **** 0.06
15089 H 13.938373654788933 26.095312641886068 3.1433384462268332 H 0.0 **** 0.06
15090 H 12.432712537729344 26.837544466370247 2.5528951163051508 H 0.0 **** 0.06
15091 C 92.02434470401948 86.72396107948946 12.649120819205216 C 0.0 **** -0.24
15092 H 91.53796322753442 87.16674214964968 11.779315243058438 H 0.0 **** 0.06
15093 H 92.48964096225902 85.7807580670601 12.363556190421255 H 0.0 **** 0.06
15094 H 91.28117008444674 86.54283682540738 13.426488979825116 H 0.0 **** 0.06
15095 H 92.78573075066244 87.40584086605956 13.026328850747088 H 0.0 **** 0.06
15096 C 29.79974393358924 75.02214452974937 31.94482447507543 C 0.0 **** -0.24
15097 H 30.884918264498594 74.92985577358974 31.90653426042254 H 0.0 **** 0.06
15098 H 29.37123753578939 74.65372003516251 31.01251047896792 H 0.0 **** 0.06
15099 H 29.528365404268754 76.0689341702373 32.080794473450766 H 0.0 **** 0.06
15100 H 29.41440201811622 74.4354515161387 32.778673153517765 H 0.0 **** 0.06
15101 C 102.05221198938892 86.94843014930579 26.199451626336383 C 0.0 **** -0.24
15102 H 102.22928858897257 86.85733480321792 25.1280309807548 H 0.0 **** 0.06
15103 H 100.98722562671668 86.83390807192696 26.402494647451164 H 0.0 **** 0.06
15104 H 102.38514131935693 87.92795998098961 26.541983459106206 H 0.0 **** 0.06
15105 H 102.60730470606399 86.17161200450614 26.72603532165067 H 0.0 **** 0.06
15106 C 5.598255388855144 77.7690027816704 52.8152846511084 C 0.0 **** -0.24
15107 H 5.920107167226295 78.1225209120073 53.794422554282754 H 0.0 **** 0.06
15108 H 5.1810891837719915 76.76544552943596 52.91133157169008 H 0.0 **** 0.06
15109 H 6.452540169349227 77.74502929265788 52.13901808014258 H 0.0 **** 0.06
15110 H 4.8384701099520715 78.44161856300741 52.41791074103637 H 0.0 **** 0.06
15111 C 13.03798969363811 64.29435604180405 37.43640118964083 C 0.0 **** -0.24
15112 H 12.411625690536425 64.91024032078113 38.08207790295205 H 0.0 **** 0.06
15113 H 12.424198367023394 63.84578766806706 36.65596139069157 H 0.0 **** 0.06
15114 H 13.50684099324451 63.50788217429685 38.02797623309664 H 0.0 **** 0.06
15115 H 13.810228248031706 64.91541663525523 36.98081680472512 H 0.0 **** 0.06
15116 C 20.876226989806078 78.53422179140726 41.84288141359349 C 0.0 **** -0.24
15117 H 21.235871723838354 79.44441721647179 41.36312767014442 H 0.0 **** 0.06
15118 H 21.21315350856728 78.51205585811708 42.878870729160724 H 0.0 **** 0.06
15119 H 21.26921790608714 77.66552303108843 41.31370719184727 H 0.0 **** 0.06
15120 H 19.786434136009284 78.51419038272195 41.813709123568856 H 0.0 **** 0.06
15121 C 101.98573036229642 51.73448773969059 43.93779611948577 C 0.0 **** -0.24
15122 H 102.12437039184042 50.925621809831 43.22081527497471 H 0.0 **** 0.06
15123 H 102.84722419961267 51.78176492250074 44.60418336489457 H 0.0 **** 0.06
15124 H 101.08386102994632 51.55056142064066 44.522585460372426 H 0.0 **** 0.06
15125 H 101.88532581602696 52.67966632581263 43.40415477930276 H 0.0 **** 0.06
15126 C 6.009794014522612 37.613192340975445 103.70087969519935 C 0.0 **** -0.24
15127 H 4.966611171988276 37.92250064615911 103.64380436566464 H 0.0 **** 0.06
15128 H 6.207519329483887 37.1842958660547 104.68453224402207 H 0.0 **** 0.06
15129 H 6.654114592888888 38.47806089931851 103.54592798400951 H 0.0 **** 0.06
15130 H 6.210368594333346 36.86685614689452 102.93218155382606 H 0.0 **** 0.06
15131 C 3.6220778060989005 105.77829794366806 74.3237364463726 C 0.0 **** -0.24
15132 H 2.9847394379913226 105.8509923174226 75.20522896407553 H 0.0 **** 0.06
15133 H 4.666468476050454 105.87421517072434 74.62320062070967 H 0.0 **** 0.06
15134 H 3.3697233579162003 106.5771853442734 73.62598800242608 H 0.0 **** 0.06
15135 H 3.4685428346685967 104.81227079416601 73.84307413962586 H 0.0 **** 0.06
15136 C 30.3466586685131 83.29284049853669 101.82675148704841 C 0.0 **** -0.24
15137 H 29.938599408996993 82.35141762454425 101.45850790777114 H 0.0 **** 0.06
15138 H 30.087317669017125 83.41365723497287 102.87916648630164 H 0.0 **** 0.06
15139 H 29.928168656637155 84.11952941061388 101.25180078778828 H 0.0 **** 0.06
15140 H 31.430991965877013 83.28615280923178 101.71798907811747 H 0.0 **** 0.06
15141 C 56.124762165057916 89.74811859682075 67.14809951414671 C 0.0 **** -0.24
15142 H 56.228554847969264 90.60728583799352 66.48507277385065 H 0.0 **** 0.06
15143 H 56.20908987481053 90.07756282815205 68.18421683031661 H 0.0 **** 0.06
15144 H 56.91089903857443 89.02506473178266 66.93142091297929 H 0.0 **** 0.06
15145 H 55.151294164239715 89.28436922165417 66.99201547286495 H 0.0 **** 0.06
15146 C 78.9975047194651 86.2604041410136 65.98378661298514 C 0.0 **** -0.24
15147 H 79.87170585527653 85.61038578902318 65.93204412987242 H 0.0 **** 0.06
15148 H 78.8831439505791 86.7900172050008 65.0374593068349 H 0.0 **** 0.06
15149 H 79.12842866995987 86.98105812437399 66.79070137883033 H 0.0 **** 0.06
15150 H 78.10959820189743 85.65887145224931 66.1745117510562 H 0.0 **** 0.06
15151 C 92.64296106536437 36.57584800358421 33.032422118918355 C 0.0 **** -0.24
15152 H 91.7853525245218 35.9058000402533 32.98603293922585 H 0.0 **** 0.06
15153 H 93.16836593426363 36.55901411607505 32.076919053885725 H 0.0 **** 0.06
15154 H 93.31700157417289 36.24880389067508 33.82455864669823 H 0.0 **** 0.06
15155 H 92.30112422849916 37.58977396733354 33.242177835864176 H 0.0 **** 0.06
15156 C 0.97740370174634 77.54281414672396 41.84106972359618 C 0.0 **** -0.24
15157 H 0.23241030438441612 78.05384728644543 42.45016547322652 H 0.0 **** 0.06
15158 H 1.9053514719960276 78.11608730112506 41.84382810228749 H 0.0 **** 0.06
15159 H 0.6103264932622778 77.45046256565305 40.81942146376542 H 0.0 **** 0.06
15160 H 1.1626793939649644 76.54978287589026 42.25209354170862 H 0.0 **** 0.06
15161 C 7.181676364548338 72.10963329856465 60.480333577690075 C 0.0 **** -0.24
15162 H 7.478583768590511 71.369599266211 59.73789753222402 H 0.0 **** 0.06
15163 H 6.837495964656242 71.60146782499615 61.381480869362676 H 0.0 **** 0.06
15164 H 6.375765023977351 72.72453747293675 60.078974010982556 H 0.0 **** 0.06
15165 H 8.035455568409546 72.74349606787514 60.723551277822395 H 0.0 **** 0.06
15166 C 26.771875944845263 13.955651958664589 47.41642640255924 C 0.0 **** -0.24
15167 H 26.879811509704425 14.158941876927202 46.35130302901467 H 0.0 **** 0.06
15168 H 25.71842016093497 13.807895343175119 47.652969371008226 H 0.0 **** 0.06
15169 H 27.15792958852593 14.798984808042974 47.988099340975964 H 0.0 **** 0.06
15170 H 27.332293544911835 13.056179323369292 47.672480744206155 H 0.0 **** 0.06
15171 C 90.28999534824433 53.266845090173206 82.53450283062534 C 0.0 **** -0.24
15172 H 90.64098612686882 54.26247753172413 82.80737690492687 H 0.0 **** 0.06
15173 H 90.41884094942954 53.11862084661084 81.4618947307016 H 0.0 **** 0.06
15174 H 89.23535545898422 53.17032226343434 82.79191056771415 H 0.0 **** 0.06
15175 H 90.86631431930421 52.517591205514975 83.07703371107327 H 0.0 **** 0.06
15176 C 61.393595752884835 15.469331539957064 16.040292985738432 C 0.0 **** -0.24
15177 H 60.86573309805442 14.665968281668167 16.554483820863567 H 0.0 **** 0.06
15178 H 62.062139794920995 15.97011701073447 16.740703931587248 H 0.0 **** 0.06
15179 H 60.67181945088538 16.186729641873978 15.650883687256936 H 0.0 **** 0.06
15180 H 61.97322964718609 15.053378373162221 15.216358396256084 H 0.0 **** 0.06
15181 C 91.65698572045275 76.21266926675106 103.01115238746317 C 0.0 **** -0.24
15182 H 91.93346720233842 77.23535227653424 102.7532702588743 H 0.0 **** 0.06
15183 H 92.49506975201064 75.54784522062184 102.80511891394417 H 0.0 **** 0.06
15184 H 90.79639410420603 75.90906252977706 102.4161871232503 H 0.0 **** 0.06
15185 H 91.40275809840352 76.16139986058083 104.06983622602323 H 0.0 **** 0.06
15186 C 34.9125156741967 18.871304162670455 34.31677304523066 C 0.0 **** -0.24
15187 H 35.511444805085915 17.97270472207593 34.46429810166538 H 0.0 **** 0.06
15188 H 34.80362654298119 19.064604432489745 33.24991792957968 H 0.0 **** 0.06
15189 H 35.406503680471246 19.718912468903227 34.79152846101181 H 0.0 **** 0.06
15190 H 33.92795473288564 18.728738309778663 34.762632277375644 H 0.0 **** 0.06
15191 C 26.663072216304954 46.26163827815023 0.08322309122411298 C 0.0 **** -0.24
15192 H 26.84086019513586 45.51196457620128 0.8540210324299409 H 0.0 **** 0.06
15193 H 25.65881457491173 46.670418823418544 0.19853051041384617 H 0.0 **** 0.06
15194 H 26.757792721916076 45.80078539144856 -0.9005712982919221 H 0.0 **** 0.06
15195 H 27.395255079959554 47.063298595165946 0.1800151278512061 H 0.0 **** 0.06
15196 C 87.16640898722655 20.298682605725872 17.216577549996835 C 0.0 **** -0.24
15197 H 87.26775868697543 21.102901229754252 17.94546736361533 H 0.0 **** 0.06
15198 H 87.35744056547868 20.688154358061283 16.21634586559627 H 0.0 **** 0.06
15199 H 86.1542226531508 19.89438460238553 17.262465981047004 H 0.0 **** 0.06
15200 H 87.8829744212814 19.509460183403192 17.44324611050719 H 0.0 **** 0.06
15201 C 5.328757219121698 26.178440570455805 81.97881865835689 C 0.0 **** -0.24
15202 H 4.354952689420585 26.12433018444912 81.49145786710034 H 0.0 **** 0.06
15203 H 5.405146711781711 27.113441988539677 82.53314407337524 H 0.0 **** 0.06
15204 H 6.113978119386786 26.137469514100697 81.22426568176098 H 0.0 **** 0.06
15205 H 5.439024698655075 25.33840424779906 82.66433944652573 H 0.0 **** 0.06
15206 C 36.93311014479794 67.71271417229742 31.162763427823705 C 0.0 **** -0.24
15207 H 37.64267489467346 68.205682234986 30.496679981681112 H 0.0 **** 0.06
15208 H 36.213404425413984 68.44492489037238 31.5306165370625 H 0.0 **** 0.06
15209 H 37.47014595950752 67.27477966480816 32.00437594359656 H 0.0 **** 0.06
15210 H 36.40877745083909 66.92815082599654 30.617578807723334 H 0.0 **** 0.06
15211 C 7.46525642007688 57.18467522047695 8.154297898462591 C 0.0 **** -0.24
15212 H 7.774590278279314 57.783719264540224 7.297520489785507 H 0.0 **** 0.06
15213 H 6.57778259037098 56.607423660221315 7.892711205019266 H 0.0 **** 0.06
15214 H 7.237303841564289 57.84152491760631 8.993104642786639 H 0.0 **** 0.06
15215 H 8.271018566367868 56.50577082304466 8.432175311607525 H 0.0 **** 0.06
15216 C 106.53083728788663 16.463047686229174 39.632007397677256 C 0.0 **** -0.24
15217 H 106.1476332706024 16.601811329250534 38.62116021286577 H 0.0 **** 0.06
15218 H 107.36084983236579 17.150502486323628 39.8029252200028 H 0.0 **** 0.06
15219 H 106.87991367455209 15.436915440324029 39.750658285761645 H 0.0 **** 0.06
15220 H 105.7384015873133 16.663701158279224 40.3520382897146 H 0.0 **** 0.06
15221 C 105.6000541538726 98.93989139968375 62.47718914632122 C 0.0 **** -0.24
15222 H 105.4878824763348 99.25981886048682 61.44123565152529 H 0.0 **** 0.06
15223 H 105.07606248475135 97.99592148957673 62.625145966931086 H 0.0 **** 0.06
15224 H 105.18059597498006 99.6973351235112 63.13887677713143 H 0.0 **** 0.06
15225 H 106.65881973243123 98.80696247153921 62.702553559550296 H 0.0 **** 0.06
15226 C 4.639378728020899 54.61320316811998 75.81649187416441 C 0.0 **** -0.24
15227 H 4.836593429431181 53.77324228255782 75.14972293272307 H 0.0 **** 0.06
15228 H 4.804566910710809 54.304810429456325 76.84879196971698 H 0.0 **** 0.06
15229 H 3.6053449352504954 54.93818673938381 75.69439119074877 H 0.0 **** 0.06
15230 H 5.309861995418576 55.436241913315655 75.5698096797333 H 0.0 **** 0.06
15231 C 95.21886873736501 26.334712390497874 72.14441583123482 C 0.0 **** -0.24
15232 H 95.22427803692376 27.299237040649754 71.63582199766907 H 0.0 **** 0.06
15233 H 94.38613728596825 25.73478769136295 71.77475452693093 H 0.0 **** 0.06
15234 H 95.1071342177426 26.49022229971248 73.21701628256534 H 0.0 **** 0.06
15235 H 96.15655434694575 25.81526269276802 71.94695845617906 H 0.0 **** 0.06
15236 C 34.43271337835668 66.6299522294995 33.47900955397131 C 0.0 **** -0.24
15237 H 35.22933609240698 66.1724989593553 32.89260146404297 H 0.0 **** 0.06
15238 H 34.484502103536975 66.26958228287286 34.50647105809452 H 0.0 **** 0.06
15239 H 33.467031339187166 66.36527836956634 33.047562357026976 H 0.0 **** 0.06
15240 H 34.55059908008792 67.71428228029625 33.466199822956696 H 0.0 **** 0.06
15241 C 34.585484815893025 49.04493268836674 60.4649343166526 C 0.0 **** -0.24
15242 H 34.59268041180006 50.08925534976356 60.77749650449073 H 0.0 **** 0.06
15243 H 35.53636676989706 48.80053567270562 59.992909686360576 H 0.0 **** 0.06
15244 H 33.775258583967556 48.88452651641336 59.75392587563317 H 0.0 **** 0.06
15245 H 34.43618718891632 48.40657069136026 61.33615927041916 H 0.0 **** 0.06
15246 C 17.535185254840627 31.907502688416535 53.18395125487666 C 0.0 **** -0.24
15247 H 17.646401682735288 32.944604277973085 53.500878564667886 H 0.0 **** 0.06
15248 H 16.620067887742493 31.493914589520607 53.608852230549815 H 0.0 **** 0.06
15249 H 18.39076831145657 31.32750899679781 53.530646627901206 H 0.0 **** 0.06
15250 H 17.482651531028424 31.863698558846245 52.09586801521024 H 0.0 **** 0.06
15251 C 36.47371568655481 8.841633535176925 8.512553953488771 C 0.0 **** -0.24
15252 H 37.038495819991454 8.544861849904493 9.396557739596632 H 0.0 **** 0.06
15253 H 36.17062266182444 9.88409892674062 8.608970878857033 H 0.0 **** 0.06
15254 H 35.58865296509035 8.212555494052708 8.419556711194305 H 0.0 **** 0.06
15255 H 37.098494445374996 8.72406240397683 7.626896423738673 H 0.0 **** 0.06
15256 C 6.108032394803502 85.27555245049598 45.41509264965072 C 0.0 **** -0.24
15257 H 6.495756599813603 85.89476322189688 46.22391133217627 H 0.0 **** 0.06
15258 H 6.776205831977336 85.34073503311555 44.55548095435222 H 0.0 **** 0.06
15259 H 5.115696335361406 85.62732236395422 45.13216368385059 H 0.0 **** 0.06
15260 H 6.045024087765341 84.24003199136521 45.74828478912383 H 0.0 **** 0.06
15261 C 91.96806813583218 25.892409712851446 57.72413941803118 C 0.0 **** -0.24
15262 H 92.9391852189904 25.903764974898962 58.21942357340615 H 0.0 **** 0.06
15263 H 91.88479196611185 26.76084322081877 57.06951807718128 H 0.0 **** 0.06
15264 H 91.17755518510442 25.925053856934937 58.474784742844065 H 0.0 **** 0.06
15265 H 91.87189471138548 24.981186798894953 57.134315587049265 H 0.0 **** 0.06
15266 C 71.63534205050539 42.13937436203517 93.58975284443764 C 0.0 **** -0.24
15267 H 71.07871959013562 41.82588959179822 92.70731396116085 H 0.0 **** 0.06
15268 H 72.65643250040651 41.76114541791654 93.52760839471803 H 0.0 **** 0.06
15269 H 71.15395617118787 41.742174021890804 94.48306533447814 H 0.0 **** 0.06
15270 H 71.65376559326987 43.22772031660844 93.6398360612852 H 0.0 **** 0.06
15271 C 61.126263965577394 13.053091423680598 36.8136018350352 C 0.0 **** -0.24
15272 H 61.555375008415325 12.8276699162777 35.836917853806284 H 0.0 **** 0.06
15273 H 61.666581978574555 13.887047429202084 37.263375786661015 H 0.0 **** 0.06
15274 H 61.208856431829616 12.17723222858777 37.457319841886175 H 0.0 **** 0.06
15275 H 60.07636427638152 13.321350473979521 36.69600323440481 H 0.0 **** 0.06
15276 C 98.44610197810613 81.29851042813146 73.54408831979515 C 0.0 **** -0.24
15277 H 97.39313840325957 81.57994178365738 73.52188866974382 H 0.0 **** 0.06
15278 H 99.03739509138353 82.06751453232346 73.04430339357725 H 0.0 **** 0.06
15279 H 98.57886360995724 80.34670373571578 73.03091971061599 H 0.0 **** 0.06
15280 H 98.7749364827315 81.20215411097473 74.57833006550061 H 0.0 **** 0.06
15281 C 47.933062005144556 72.62108328966588 63.71402119352754 C 0.0 **** -0.24
15282 H 48.877142692280216 72.87746116241368 63.234512385902946 H 0.0 **** 0.06
15283 H 47.16252423758896 73.32625787683219 63.40113767817459 H 0.0 **** 0.06
15284 H 48.05112625478714 72.66733490017486 64.79666302389356 H 0.0 **** 0.06
15285 H 47.64197615517831 71.61115980545199 63.42328533065583 H 0.0 **** 0.06
15286 C 20.518060939388043 91.64283883310588 17.615937830150642 C 0.0 **** -0.24
15287 H 20.802224217863433 91.26622903603601 18.59876742841564 H 0.0 **** 0.06
15288 H 21.330713769907685 91.46877014040564 16.91104624251011 H 0.0 **** 0.06
15289 H 20.314954888039427 92.71240881916276 17.68141873850783 H 0.0 **** 0.06
15290 H 19.62169839334642 91.12359873620892 17.27343714388084 H 0.0 **** 0.06
15291 C 37.011479039098845 89.1230636504182 41.46690881861116 C 0.0 **** -0.24
15292 H 37.508334589246715 88.16159483541782 41.34022435991977 H 0.0 **** 0.06
15293 H 36.12272238165647 89.15890078783798 40.83641533095917 H 0.0 **** 0.06
15294 H 37.69310998892581 89.92448475867843 41.18140369275997 H 0.0 **** 0.06
15295 H 36.72244240976784 89.24723553080031 42.51146756210295 H 0.0 **** 0.06
15296 C 91.48410625714692 52.60341758820954 90.83162323917739 C 0.0 **** -0.24
15297 H 91.7339510912071 51.57789949735269 90.5588120747498 H 0.0 **** 0.06
15298 H 90.43057331643462 52.65915702014419 91.10578591076344 H 0.0 **** 0.06
15299 H 91.67527691945386 53.26101812245423 89.98372524183239 H 0.0 **** 0.06
15300 H 92.09777365225338 52.912980571077924 91.67681359255411 H 0.0 **** 0.06
15301 C 60.00361683911831 68.99228176335146 2.0865214044775655 C 0.0 **** -0.24
15302 H 60.32814369893714 69.65905103995505 1.287873334609401 H 0.0 **** 0.06
15303 H 60.35997830686745 69.37423059663809 3.04435354137172 H 0.0 **** 0.06
15304 H 60.411904819976314 67.9967213298637 1.9169455045262254 H 0.0 **** 0.06
15305 H 58.91489118978723 68.9420661035017 2.0983767781474114 H 0.0 **** 0.06
15306 C 95.90796350885003 37.405871346320026 11.213359165842775 C 0.0 **** -0.24
15307 H 96.92929411152575 37.775745269162684 11.304774682402282 H 0.0 **** 0.06
15308 H 95.80023318922808 36.48960397605276 11.793856360403694 H 0.0 **** 0.06
15309 H 95.68772843855255 37.20153296685277 10.16615193113897 H 0.0 **** 0.06
15310 H 95.2146635279219 38.15813863433357 11.590277984409752 H 0.0 **** 0.06
15311 C 92.34455605765321 22.922589657241527 72.73315106831976 C 0.0 **** -0.24
15312 H 92.56198617699098 22.729736464468598 73.78374732852345 H 0.0 **** 0.06
15313 H 93.18629662131463 23.445475392382626 72.27811252059226 H 0.0 **** 0.06
15314 H 91.4484670813527 23.537574735456797 72.65407150907905 H 0.0 **** 0.06
15315 H 92.18199710381283 21.97672263770153 72.21660013521236 H 0.0 **** 0.06
15316 C 10.573229841021913 67.69865870714338 20.602264401143543 C 0.0 **** -0.24
15317 H 11.10762785156821 68.32659017282614 21.31558450861843 H 0.0 **** 0.06
15318 H 9.513253590063016 67.68005865001254 20.85737640173778 H 0.0 **** 0.06
15319 H 10.97464789606343 66.68556273223317 20.639356631862768 H 0.0 **** 0.06
15320 H 10.69832577995227 68.10162107480534 19.597433556856913 H 0.0 **** 0.06
15321 C 61.80768470557882 7.545913374387226 93.58599799700329 C 0.0 **** -0.24
15322 H 61.55333260179076 7.098758869563426 92.62465175509865 H 0.0 **** 0.06
15323 H 62.853117814306955 7.854191432196842 93.57763388068213 H 0.0 **** 0.06
15324 H 61.650852808258236 6.814419341504276 94.37860062993124 H 0.0 **** 0.06
15325 H 61.17314146557574 8.414302340908534 93.76211208196273 H 0.0 **** 0.06
15326 C 54.79343665889631 59.46883010917052 55.89616383695966 C 0.0 **** -0.24
15327 H 54.30008938182625 58.50271941086853 56.0009554088288 H 0.0 **** 0.06
15328 H 54.11108912005795 60.260685084450046 56.206351322194095 H 0.0 **** 0.06
15329 H 55.07637921201784 59.62010653742331 54.853871307495695 H 0.0 **** 0.06
15330 H 55.6857365437903 59.49062866643542 56.52137933661374 H 0.0 **** 0.06
15331 C 65.70214664808258 12.552244309845694 5.002941173638462 C 0.0 **** -0.24
15332 H 65.93266402294097 12.55977612966748 6.0682785476732874 H 0.0 **** 0.06
15333 H 64.87140233259845 11.872208846035587 4.815496942214338 H 0.0 **** 0.06
15334 H 66.57770398063002 12.219993396712868 4.4452841200309905 H 0.0 **** 0.06
15335 H 65.42825031274253 13.557969384218339 4.682746510827101 H 0.0 **** 0.06
15336 C 1.9540983486465962 89.41765700394247 66.57257922458928 C 0.0 **** -0.24
15337 H 2.431001367907257 89.70149699020602 65.63458291993823 H 0.0 **** 0.06
15338 H 0.8949019542865386 89.2261661685705 66.39796820186092 H 0.0 **** 0.06
15339 H 2.0635098486449834 90.2269563148867 67.29457608154519 H 0.0 **** 0.06
15340 H 2.4269802237479325 88.51600854210658 66.96318969501289 H 0.0 **** 0.06
15341 C 84.80383331461559 78.51152312853145 78.83092068679981 C 0.0 **** -0.24
15342 H 83.92291437594429 78.32754659411678 79.44663426098091 H 0.0 **** 0.06
15343 H 84.98828911653061 77.64718793953895 78.19274402024415 H 0.0 **** 0.06
15344 H 85.66791523315561 78.67960511717358 79.47379594210062 H 0.0 **** 0.06
15345 H 84.63546918394792 79.39157976389652 78.20986467786149 H 0.0 **** 0.06
15346 C 94.44336855827773 11.162623677158024 74.58716825582458 C 0.0 **** -0.24
15347 H 93.63992475400401 10.787321969986351 75.22088379380304 H 0.0 **** 0.06
15348 H 94.04605926794396 11.403403193806469 73.60115494095196 H 0.0 **** 0.06
15349 H 95.21655541560085 10.399987568318807 74.49169063056006 H 0.0 **** 0.06
15350 H 94.87216869191671 12.05881154663814 75.03653613902517 H 0.0 **** 0.06
15351 C 56.97871415703105 57.29381928818796 92.68796757100165 C 0.0 **** -0.24
15352 H 57.560791125128105 56.70118606571708 93.39369271074816 H 0.0 **** 0.06
15353 H 57.10924198376284 58.35364854382479 92.90949228745399 H 0.0 **** 0.06
15354 H 55.92505399376199 57.03077482549398 92.77519444484062 H 0.0 **** 0.06
15355 H 57.32199654958643 57.08955399871181 91.67365715938763 H 0.0 **** 0.06
15356 C 98.70055353369594 10.061582132235472 59.745806077200314 C 0.0 **** -0.24
15357 H 97.72908308103025 9.776179272975199 60.15081240697609 H 0.0 **** 0.06
15358 H 99.47396607118573 9.867279357947723 60.48904304891266 H 0.0 **** 0.06
15359 H 98.69273903473716 11.122977954536125 59.49753494202281 H 0.0 **** 0.06
15360 H 98.90432829405697 9.478878638391691 58.847972490306034 H 0.0 **** 0.06
15361 C 73.52856543000559 94.12858251054163 74.03643874492835 C 0.0 **** -0.24
15362 H 74.59630252034927 94.31454360738195 73.91680295191667 H 0.0 **** 0.06
15363 H 73.33080510707653 93.06263818801858 73.9166416803532 H 0.0 **** 0.06
15364 H 72.97607307220632 94.68807963467899 73.28131631248142 H 0.0 **** 0.06
15365 H 73.21337397626174 94.4485651204563 75.02912607779407 H 0.0 **** 0.06
15366 C 98.38404056351145 34.672074129968934 87.9735332807362 C 0.0 **** -0.24
15367 H 98.82846663732474 35.594843791974284 88.34586552781624 H 0.0 **** 0.06
15368 H 98.69066737493836 34.51285756254009 86.93902187014407 H 0.0 **** 0.06
15369 H 97.29769609709554 34.74586708625759 88.02451377826111 H 0.0 **** 0.06
15370 H 98.72009982445324 33.83481678909121 88.58591638347187 H 0.0 **** 0.06
15371 C 1.6207152941796608 58.33577826372643 2.823054130492636 C 0.0 **** -0.24
15372 H 2.330512617342009 57.79699906561386 3.450019361214146 H 0.0 **** 0.06
15373 H 2.0421961577836214 59.30098845933081 2.5434851113216155 H 0.0 **** 0.06
15374 H 0.6927550742060475 58.48972086315005 3.3749420473058933 H 0.0 **** 0.06
15375 H 1.4158245781706569 57.753961548525425 1.9244364102295322 H 0.0 **** 0.06
15376 C 11.544327439375095 44.837371983607554 98.83600742536862 C 0.0 **** -0.24
15377 H 11.031083130911853 43.90476032459993 98.59961257563302 H 0.0 **** 0.06
15378 H 10.834913051220212 45.66453792271519 98.79015428894671 H 0.0 **** 0.06
15379 H 12.343872968320483 45.003663915615505 98.11492657578351 H 0.0 **** 0.06
15380 H 11.965376092750773 44.77534364700016 99.8399199037002 H 0.0 **** 0.06
15381 C 39.54734664916238 38.05910572197183 66.90977716514448 C 0.0 **** -0.24
15382 H 39.920202736799936 38.00167693239351 67.93173602715063 H 0.0 **** 0.06
15383 H 38.59006455308261 37.54144725367851 66.84198745176215 H 0.0 **** 0.06
15384 H 40.26291170394406 37.588724456495385 66.23441586576732 H 0.0 **** 0.06
15385 H 39.415498835947716 39.10418750794848 66.62888405477221 H 0.0 **** 0.06
15386 C 48.554061568574205 96.77410076422245 48.959178711479716 C 0.0 **** -0.24
15387 H 49.21616789218336 96.70157883314374 48.09604748289676 H 0.0 **** 0.06
15388 H 48.076277872202624 97.75454480312982 48.96882257752459 H 0.0 **** 0.06
15389 H 49.13315720071062 96.64336691884063 49.87348371055178 H 0.0 **** 0.06
15390 H 47.791215952212 95.99870185609788 48.89714842440645 H 0.0 **** 0.06
15391 C 87.11452311614161 39.90823771325026 34.14131476214112 C 0.0 **** -0.24
15392 H 88.01976284230508 40.36666908248657 34.539877733451135 H 0.0 **** 0.06
15393 H 86.24178422740874 40.36628595883113 34.605472375243664 H 0.0 **** 0.06
15394 H 87.12360336832484 38.839419273802065 34.3559805949576 H 0.0 **** 0.06
15395 H 87.07577527650815 40.06082130268712 33.06297273036074 H 0.0 **** 0.06
15396 C 98.19588081099768 103.9010567599758 47.15908604696867 C 0.0 **** -0.24
15397 H 97.65384747376201 104.2239581429906 48.0488592438258 H 0.0 **** 0.06
15398 H 99.18739491067296 103.55001952835028 47.44591070096214 H 0.0 **** 0.06
15399 H 98.29172541562045 104.73764865057223 46.46780428515492 H 0.0 **** 0.06
15400 H 97.64966444214511 103.09041078429723 46.67561677158362 H 0.0 **** 0.06
15401 C 74.62205794456676 88.40943790039444 67.13740080790689 C 0.0 **** -0.24
15402 H 75.25659818337022 88.01796868112228 67.93216820613452 H 0.0 **** 0.06
15403 H 74.58924257744735 89.49717470299743 67.20104447411313 H 0.0 **** 0.06
15404 H 73.61404739923279 88.0080662421642 67.24591476648584 H 0.0 **** 0.06
15405 H 75.02745226444728 88.11409463944699 66.1704021293107 H 0.0 **** 0.06
15406 C 35.30404587275993 42.15160036604395 78.50928338056565 C 0.0 **** -0.24
15407 H 36.30141120345613 42.50660875575327 78.2499531974737 H 0.0 **** 0.06
15408 H 34.651354856629865 43.00507121883294 78.69200074266155 H 0.0 **** 0.06
15409 H 35.3603783151234 41.537076480856584 79.4075593625389 H 0.0 **** 0.06
15410 H 34.90493446772618 41.5578956680509 77.68646046041573 H 0.0 **** 0.06
15411 C 77.43005749746413 19.46350120427752 81.08583840214351 C 0.0 **** -0.24
15412 H 77.69754987682944 18.981732717496826 82.02664586927546 H 0.0 **** 0.06
15413 H 76.44890789695532 19.927395978972754 81.18140385235887 H 0.0 **** 0.06
15414 H 77.40414843516913 18.71706421192944 80.29149573223316 H 0.0 **** 0.06
15415 H 78.17123402396555 20.225546128746856 80.84493677016951 H 0.0 **** 0.06
15416 C 35.32168044975282 106.41563054694774 57.34447330247921 C 0.0 **** -0.24
15417 H 35.66540498608845 105.85962489840385 56.47226698172522 H 0.0 **** 0.06
15418 H 34.48334152873258 105.89079829201336 57.802287296959335 H 0.0 **** 0.06
15419 H 35.00395755387416 107.41273966496595 57.037823133056214 H 0.0 **** 0.06
15420 H 36.13624836170371 106.49959918819806 58.06453242179848 H 0.0 **** 0.06
15421 C 35.284887072106955 33.69324937515904 80.86308801627433 C 0.0 **** -0.24
15422 H 35.51996973850123 32.85874901325553 80.201739366747 H 0.0 **** 0.06
15423 H 34.268794507008835 33.57996898369646 81.24289220919383 H 0.0 **** 0.06
15424 H 35.363203029741015 34.628085744203474 80.30955192415115 H 0.0 **** 0.06
15425 H 35.98645295669468 33.704583481219856 81.69710333135157 H 0.0 **** 0.06
15426 C 88.69388143605423 97.85168765855475 101.58239184400452 C 0.0 **** -0.24
15427 H 88.3296417115663 96.97995942228118 102.12544247148708 H 0.0 **** 0.06
15428 H 89.11056828191477 98.57156598742938 102.28775134838186 H 0.0 **** 0.06
15429 H 87.86923782202233 98.31101327899823 101.03779055064848 H 0.0 **** 0.06
15430 H 89.46702779857645 97.54402803842822 100.8783300796677 H 0.0 **** 0.06
15431 C 88.04783776928042 92.91167332714501 46.79985588809717 C 0.0 **** -0.24
15432 H 88.80068848671192 92.4591574724092 47.446361086210686 H 0.0 **** 0.06
15433 H 88.1588427823306 92.52404812758677 45.78701023639451 H 0.0 **** 0.06
15434 H 88.1781523642305 93.9934002355253 46.792879781158604 H 0.0 **** 0.06
15435 H 87.053720133267 92.66816230035688 47.175243994491325 H 0.0 **** 0.06
15436 C 42.17184706509552 18.551087696428922 33.70613673995534 C 0.0 **** -0.24
15437 H 42.80740597657777 19.313600631689653 34.15791064735527 H 0.0 **** 0.06
15438 H 41.284784961610086 19.021894081316248 33.28297381996331 H 0.0 **** 0.06
15439 H 41.87312873140766 17.83078185712992 34.46829328657049 H 0.0 **** 0.06
15440 H 42.72418017218567 18.038952613404376 32.91815672093313 H 0.0 **** 0.06
15441 C 102.58398720701123 84.04857011332297 90.42352901746382 C 0.0 **** -0.24
15442 H 102.37107049683412 83.22639812510613 89.73968660711924 H 0.0 **** 0.06
15443 H 101.97132500413954 84.9102484116151 90.15782380786898 H 0.0 **** 0.06
15444 H 103.63845135519222 84.3151133289349 90.35070190586418 H 0.0 **** 0.06
15445 H 102.35689541891485 83.74026011389657 91.44374171180894 H 0.0 **** 0.06
15446 C 48.91863126761419 14.741424586649401 62.54018403951579 C 0.0 **** -0.24
15447 H 48.59009845989246 14.68948577549105 61.50317431653748 H 0.0 **** 0.06
15448 H 48.124105143684375 14.37897269560446 63.192391497641324 H 0.0 **** 0.06
15449 H 49.15528305486416 15.774995168001809 62.79520472048053 H 0.0 **** 0.06
15450 H 49.806978593496154 14.123127160787178 62.67117278880585 H 0.0 **** 0.06
15451 C 62.05688932527937 105.82806315277028 4.392296194844306 C 0.0 **** -0.24
15452 H 62.008815426852664 105.45492065164939 5.415140398764336 H 0.0 **** 0.06
15453 H 61.14137483243644 105.55926214815364 3.8650657386451286 H 0.0 **** 0.06
15454 H 62.91256261934154 105.38476765195486 3.882739494571325 H 0.0 **** 0.06
15455 H 62.163488962513156 106.91279780003602 4.406115539696671 H 0.0 **** 0.06
15456 C 69.10828282552202 51.390609046333196 82.94977497777357 C 0.0 **** -0.24
15457 H 68.72033061144958 51.8163646368736 83.87475277736579 H 0.0 **** 0.06
15458 H 68.33607991328995 51.43056092503812 82.18044650871236 H 0.0 **** 0.06
15459 H 69.39746932281514 50.35312576311077 83.12133655676361 H 0.0 **** 0.06
15460 H 69.97750795258042 51.961200030903484 82.62331013155764 H 0.0 **** 0.06
15461 C 67.66156399776011 21.153054745661677 26.10903516333623 C 0.0 **** -0.24
15462 H 68.37289567261556 20.4583517603337 26.555481923181077 H 0.0 **** 0.06
15463 H 66.94131667404017 21.46968162860975 26.86292831419949 H 0.0 **** 0.06
15464 H 67.13859408198616 20.660565758434586 25.289406125543042 H 0.0 **** 0.06
15465 H 68.19511449365919 22.02445993497156 25.727601503745312 H 0.0 **** 0.06
15466 C 32.249042153733626 26.654528328560986 92.62699092957749 C 0.0 **** -0.24
15467 H 31.560166752332634 27.21592369776961 91.99670720301228 H 0.0 **** 0.06
15468 H 31.72769281914853 26.3110810687176 93.52018437621891 H 0.0 **** 0.06
15469 H 33.08191004088542 27.29629561285799 92.91588811501859 H 0.0 **** 0.06
15470 H 32.62803601530592 25.794749545867603 92.07366205120707 H 0.0 **** 0.06
15471 C 64.58476832232736 53.32741814977453 38.63608324915069 C 0.0 **** -0.24
15472 H 63.89082205375135 53.1945927402291 37.80637205109704 H 0.0 **** 0.06
15473 H 64.82692878893536 54.384950516270806 38.74100372337409 H 0.0 **** 0.06
15474 H 65.49624558407376 52.762438146678505 38.440493087276735 H 0.0 **** 0.06
15475 H 64.12393207928804 52.96640782158141 39.55625783473889 H 0.0 **** 0.06
15476 C 12.900195202389927 50.77834530366951 106.3443986406141 C 0.0 **** -0.24
15477 H 11.82104031924851 50.8646891637809 106.47256337676916 H 0.0 **** 0.06
15478 H 13.115134822950761 50.07831563955514 105.53682997468084 H 0.0 **** 0.06
15479 H 13.347560787927335 50.416003712752214 107.26918901979789 H 0.0 **** 0.06
15480 H 13.315895490832759 51.75551333450368 106.09839737928512 H 0.0 **** 0.06
15481 C 68.28813807917368 102.39980109033836 70.39172918843418 C 0.0 **** -0.24
15482 H 69.17384968981713 101.88796036224679 70.01600628852046 H 0.0 **** 0.06
15483 H 67.56918886342481 101.664301374986 70.75392242960143 H 0.0 **** 0.06
15484 H 67.83690406308074 102.98285020046465 69.58822414506007 H 0.0 **** 0.06
15485 H 68.57121978012822 103.06431041176411 71.20775357325549 H 0.0 **** 0.06
15486 C 13.643086715858232 61.6762383037659 59.887658533040906 C 0.0 **** -0.24
15487 H 13.352122659463902 60.632545957084034 59.76789660429978 H 0.0 **** 0.06
15488 H 14.417112156676637 61.9226372169519 59.161242073651124 H 0.0 **** 0.06
15489 H 14.026094791094181 61.83290148917959 60.89635531393077 H 0.0 **** 0.06
15490 H 12.775172923419092 62.31544083018639 59.72588868803905 H 0.0 **** 0.06
15491 C 27.71096742062241 12.427557920444087 84.99282794852306 C 0.0 **** -0.24
15492 H 28.363237346248866 12.223481387662517 85.8416862405565 H 0.0 **** 0.06
15493 H 28.261368758533294 12.267995354882387 84.0655961194503 H 0.0 **** 0.06
15494 H 27.367566397322904 13.461183142718909 85.03772064715565 H 0.0 **** 0.06
15495 H 26.851706840263503 11.757180561597252 85.02538852176411 H 0.0 **** 0.06
15496 C 94.60140177843545 12.750234750340638 40.44773369425404 C 0.0 **** -0.24
15497 H 93.80934944135777 13.465659351516933 40.230187448363154 H 0.0 **** 0.06
15498 H 94.5700362973165 11.94008895007957 39.718298463591154 H 0.0 **** 0.06
15499 H 94.45832810773354 12.343531172660974 41.44912215905869 H 0.0 **** 0.06
15500 H 95.56801956679482 13.250518468814988 40.39415261551476 H 0.0 **** 0.06
15501 C 21.632383563585435 27.610442358804846 40.71629834678879 C 0.0 **** -0.24
15502 H 20.662982741609234 27.1746406575661 40.958700173153545 H 0.0 **** 0.06
15503 H 21.529709198979404 28.264270615659314 39.850024539443154 H 0.0 **** 0.06
15504 H 22.341880937270442 26.814476992929713 40.49098677944119 H 0.0 **** 0.06
15505 H 21.99304286631917 28.188916962455437 41.56772525390005 H 0.0 **** 0.06
15506 C 33.03872035618353 71.56911064926362 34.90536741064159 C 0.0 **** -0.24
15507 H 34.022072960954986 71.09820303789502 34.889229731454975 H 0.0 **** 0.06
15508 H 33.135971561298184 72.602401869359 35.23712353158132 H 0.0 **** 0.06
15509 H 32.38794218765613 71.02594249168779 35.59021250998876 H 0.0 **** 0.06
15510 H 32.61026206718126 71.5467978471484 33.90255067015454 H 0.0 **** 0.06
15511 C 6.53600108198583 21.86512772934715 39.17729813259399 C 0.0 **** -0.24
15512 H 6.299166697904241 22.23333633886803 38.179156061093124 H 0.0 **** 0.06
15513 H 7.40002995633607 22.403376350382146 39.56794921560194 H 0.0 **** 0.06
15514 H 6.763461564880998 20.799936441873925 39.12775027307575 H 0.0 **** 0.06
15515 H 5.681398050748868 22.023481611540006 39.83526046057946 H 0.0 **** 0.06
15516 C 77.58064367517467 51.7897950667381 101.71623117559277 C 0.0 **** -0.24
15517 H 78.38821699405553 51.31683039612683 102.27614949197509 H 0.0 **** 0.06
15518 H 77.19149066008701 52.63489981057867 102.28537147226345 H 0.0 **** 0.06
15519 H 76.78361345887095 51.06549665099823 101.54906858110681 H 0.0 **** 0.06
15520 H 77.96079499355827 52.14034857605023 100.75734334967439 H 0.0 **** 0.06
15521 C 49.620822656013196 71.63595281787545 94.7646473438314 C 0.0 **** -0.24
15522 H 50.3233288890598 72.39990711323051 95.09870506873159 H 0.0 **** 0.06
15523 H 49.09787725917327 71.98793154402105 93.8761977216682 H 0.0 **** 0.06
15524 H 48.899259443015566 71.43619867510662 95.55664071869955 H 0.0 **** 0.06
15525 H 50.16443617839321 70.72176567112933 94.52915245591404 H 0.0 **** 0.06
15526 C 64.72178932700606 70.39797325195906 14.559634930398119 C 0.0 **** -0.24
15527 H 65.56715851664808 70.95519590986052 14.96377917113007 H 0.0 **** 0.06
15528 H 64.88614741059274 70.20881782910763 13.498954798903 H 0.0 **** 0.06
15529 H 63.80873922979208 70.97979086355556 14.688124310323076 H 0.0 **** 0.06
15530 H 64.62666557272847 69.44941152156716 15.088596031047814 H 0.0 **** 0.06
15531 C 72.8295970683418 38.42157110529282 77.69666255617096 C 0.0 **** -0.24
15532 H 73.09031912694843 38.193444649872355 76.66258417783183 H 0.0 **** 0.06
15533 H 73.28949035813014 37.68552906754616 78.35781767645904 H 0.0 **** 0.06
15534 H 71.74624967899678 38.388711863133125 77.814278168638 H 0.0 **** 0.06
15535 H 73.19332459509144 39.4163611208441 77.95192667571064 H 0.0 **** 0.06
15536 C 83.40612471376926 98.00056598893363 10.596159329063479 C 0.0 **** -0.24
15537 H 83.14942570534265 97.3365916134001 9.770492100403125 H 0.0 **** 0.06
15538 H 84.47820687888941 98.19717793171083 10.583033536627127 H 0.0 **** 0.06
15539 H 83.1349636131813 97.52807183693933 11.540274598783453 H 0.0 **** 0.06
15540 H 82.86313337709055 98.93871250554479 10.490087929660353 H 0.0 **** 0.06
15541 C 15.91018944499777 19.002349628097704 2.309247168772572 C 0.0 **** -0.24
15542 H 16.543161735175147 19.193393954038157 1.4424000804967818 H 0.0 **** 0.06
15543 H 16.03474066650483 19.806944219136568 3.0349125929138836 H 0.0 **** 0.06
15544 H 16.194160052080065 18.05408010251284 2.7644188499051694 H 0.0 **** 0.06
15545 H 14.86687614661318 18.95525823801856 1.993640495634537 H 0.0 **** 0.06
15546 C 102.79159086883855 38.040696294784084 54.264318421101876 C 0.0 **** -0.24
15547 H 102.75339227165726 38.18976110572865 53.18517326746294 H 0.0 **** 0.06
15548 H 101.79646599469372 38.18593543771436 54.68621869574994 H 0.0 **** 0.06
15549 H 103.48241235695889 38.759828644220306 54.70598017504604 H 0.0 **** 0.06
15550 H 103.13370381593656 37.02860985116848 54.480064708046896 H 0.0 **** 0.06
15551 C 74.00162656383446 104.33196161884443 79.88505189128989 C 0.0 **** -0.24
15552 H 74.69114952366567 104.10960617527887 79.07128177267498 H 0.0 **** 0.06
15553 H 74.5655368677939 104.4952482800029 80.804599845675 H 0.0 **** 0.06
15554 H 73.31843524884124 103.4939809524772 80.021410653392 H 0.0 **** 0.06
15555 H 73.43250661382794 105.2293303220361 79.64371484793527 H 0.0 **** 0.06
15556 C 66.49361819964201 91.90262009990762 92.74789086671345 C 0.0 **** -0.24
15557 H 66.02063144234255 92.3982421228794 93.59492981892416 H 0.0 **** 0.06
15558 H 65.74738930475783 91.32656142185746 92.20031478676594 H 0.0 **** 0.06
15559 H 67.27703686080513 91.2346998651702 93.10758312552755 H 0.0 **** 0.06
15560 H 66.93023874721455 92.65164463476114 92.08652750534978 H 0.0 **** 0.06
15561 C 52.55677878756006 39.36485450764167 86.1010270768548 C 0.0 **** -0.24
15562 H 52.55085481831517 38.31080865035693 86.37873906396659 H 0.0 **** 0.06
15563 H 52.17002828595341 39.47622335769728 85.08777056340884 H 0.0 **** 0.06
15564 H 53.57763913320392 39.745395838953016 86.14356162953169 H 0.0 **** 0.06
15565 H 51.92942985877741 39.92632822813158 86.79310891879469 H 0.0 **** 0.06
15566 C 37.64619880231402 9.572473378078882 55.51188694586367 C 0.0 **** -0.24
15567 H 38.033072514020745 9.711249188779448 56.52139509827869 H 0.0 **** 0.06
15568 H 38.09428258247229 8.681762715974287 55.0710852152932 H 0.0 **** 0.06
15569 H 37.895848402102274 10.443336834548688 54.905666168647706 H 0.0 **** 0.06
15570 H 36.563426066284876 9.454209413085891 55.54984127533615 H 0.0 **** 0.06
15571 C 62.03553810043974 90.6335161924491 36.281394721424476 C 0.0 **** -0.24
15572 H 62.67363953894167 91.39263891656935 35.828812177608825 H 0.0 **** 0.06
15573 H 61.45751203868619 91.07983936695052 37.0907013456422 H 0.0 **** 0.06
15574 H 62.65381528273693 89.82783932997923 36.67631090407741 H 0.0 **** 0.06
15575 H 61.35655900573366 90.2339736919253 35.526829300406746 H 0.0 **** 0.06
15576 C 12.140749095335522 41.27181892603926 61.46446308096506 C 0.0 **** -0.24
15577 H 13.055301295953896 41.31200200624201 62.05485890575113 H 0.0 **** 0.06
15578 H 12.264445864795988 40.55633296116477 60.651257897781306 H 0.0 **** 0.06
15579 H 11.929820792076697 42.25844537379288 61.052149847416786 H 0.0 **** 0.06
15580 H 11.312179115767407 40.95930175481834 62.099706732450784 H 0.0 **** 0.06
15581 C 71.18769977969527 10.119321025208919 90.22236632825052 C 0.0 **** -0.24
15582 H 70.19331068468969 10.228735774569685 89.78943625010564 H 0.0 **** 0.06
15583 H 71.48031537360313 9.070248139563517 90.20094590393379 H 0.0 **** 0.06
15584 H 71.1747991176587 10.472953793067191 91.2528216148656 H 0.0 **** 0.06
15585 H 71.90120461921262 10.708813969385801 89.64548100238245 H 0.0 **** 0.06
15586 C 11.728127750985209 38.333101617184894 90.2213591875132 C 0.0 **** -0.24
15587 H 11.753626637093362 37.35439328594779 90.69993989277589 H 0.0 **** 0.06
15588 H 11.081146882124813 38.29262520556438 89.34610548753989 H 0.0 **** 0.06
15589 H 12.73598651319719 38.6143071369641 89.91692717178191 H 0.0 **** 0.06
15590 H 11.342110831955608 39.07054540447655 90.92586777865313 H 0.0 **** 0.06
15591 C 1.5015023054895522 75.03285377581638 61.626306861432 C 0.0 **** -0.24
15592 H 2.1665211807064395 74.91490012310373 60.77122002173584 H 0.0 **** 0.06
15593 H 1.5344535747593824 76.06597103439782 61.973119027393494 H 0.0 **** 0.06
15594 H 1.8218883920441868 74.36960481005461 62.42961082650943 H 0.0 **** 0.06
15595 H 0.482176348244991 74.78108825898612 61.33108407748658 H 0.0 **** 0.06
15596 C 46.824251322199466 92.12892712253928 83.37008908602971 C 0.0 **** -0.24
15597 H 46.10601232284196 91.38736098413679 83.7204119776327 H 0.0 **** 0.06
15598 H 46.318083619306464 92.84862505545868 82.72581204729559 H 0.0 **** 0.06
15599 H 47.61573851661681 91.63248856832267 82.80923129580066 H 0.0 **** 0.06
15600 H 47.25595464984184 92.64832676699048 84.22672497101846 H 0.0 **** 0.06
15601 C 88.79178474071907 50.47983774595775 36.35658421633278 C 0.0 **** -0.24
15602 H 88.49848308138687 49.496104094009866 36.72424028383551 H 0.0 **** 0.06
15603 H 88.19936424752927 51.245836747529495 36.85875976206168 H 0.0 **** 0.06
15604 H 88.61852103376455 50.53186651756312 35.2816249568651 H 0.0 **** 0.06
15605 H 89.84850193997679 50.645029894625054 36.56247967666192 H 0.0 **** 0.06
15606 C 99.70296958355607 19.304972589215765 97.50845686713336 C 0.0 **** -0.24
15607 H 100.49622257566614 18.63884696415664 97.16688093037804 H 0.0 **** 0.06
15608 H 100.11532859720053 20.298108449230995 97.68798941896652 H 0.0 **** 0.06
15609 H 99.27629736315419 18.915440512997975 98.43284709504324 H 0.0 **** 0.06
15610 H 98.92640287832585 19.365188151812674 96.74588624751215 H 0.0 **** 0.06
15611 C 16.557582584264384 11.855010371903461 93.4133668430597 C 0.0 **** -0.24
15612 H 16.675396271300713 12.920464624660724 93.2119023314215 H 0.0 **** 0.06
15613 H 15.555589808517468 11.539179843042064 93.12089237260616 H 0.0 **** 0.06
15614 H 16.702052851922126 11.669040001524138 94.47695793224479 H 0.0 **** 0.06
15615 H 17.297291572020473 11.293959966568309 92.84191887371747 H 0.0 **** 0.06
15616 C 5.169482331052109 45.60643351240256 24.04036134286784 C 0.0 **** -0.24
15617 H 5.946616568849208 45.000084701065475 24.50640665673519 H 0.0 **** 0.06
15618 H 4.839672091737441 45.12643713836105 23.118222275747097 H 0.0 **** 0.06
15619 H 5.5667272164127155 46.59527431611598 23.813597095405008 H 0.0 **** 0.06
15620 H 4.325056161852046 45.70112125059694 24.72178874490947 H 0.0 **** 0.06
15621 C 78.87131323109156 62.18395690629241 82.08131497734408 C 0.0 **** -0.24
15622 H 78.72793591604085 61.64726300328823 81.1425826479954 H 0.0 **** 0.06
15623 H 79.49155185774282 61.586223401836634 82.74977922038997 H 0.0 **** 0.06
15624 H 77.90264751152404 62.36357660728993 82.5477323815011 H 0.0 **** 0.06
15625 H 79.36188555522244 63.13619775997087 81.88346455904204 H 0.0 **** 0.06
15626 C 62.56021857180369 0.6060116352364133 64.85740246390901 C 0.0 **** -0.24
15627 H 62.530146474867706 1.4592069156933292 65.53628188200508 H 0.0 **** 0.06
15628 H 63.286804314042854 -0.12119930127148848 65.22062849213845 H 0.0 **** 0.06
15629 H 62.85086162972905 0.9437094188092487 63.8625981971073 H 0.0 **** 0.06
15630 H 61.574252934250325 0.14389279389510534 64.81116792824113 H 0.0 **** 0.06
15631 C 9.432155040230427 63.84402331509949 7.166392969748813 C 0.0 **** -0.24
15632 H 10.354006609560017 63.297048296232376 6.968363363443075 H 0.0 **** 0.06
15633 H 8.64470974425086 63.480683803187915 6.506214960556399 H 0.0 **** 0.06
15634 H 9.595006136519928 64.90726020913881 6.9870397328444565 H 0.0 **** 0.06
15635 H 9.137131146633337 63.691439707124516 8.204900978903892 H 0.0 **** 0.06
15636 C 76.1718455201908 8.962094588317285 67.64832110787628 C 0.0 **** -0.24
15637 H 77.09874824510428 9.491179381031046 67.86545065784023 H 0.0 **** 0.06
15638 H 76.34323861906248 7.887255712381659 67.71266033024119 H 0.0 **** 0.06
15639 H 75.83562352554841 9.217149401714295 66.64359502811382 H 0.0 **** 0.06
15640 H 75.40915459679542 9.252017393437768 68.37170625620388 H 0.0 **** 0.06
15641 C 19.38464098791885 47.48777359169395 103.8679657115261 C 0.0 **** -0.24
15642 H 20.429887824238964 47.72153358099615 104.07090668357921 H 0.0 **** 0.06
15643 H 18.75367583083669 48.296043767940716 104.23698871442846 H 0.0 **** 0.06
15644 H 19.115748296456367 46.55804694122702 104.36891856585748 H 0.0 **** 0.06
15645 H 19.240557502143233 47.37630283898534 102.79315087074127 H 0.0 **** 0.06
15646 C 57.22105405238244 80.08592640705807 16.340353511145253 C 0.0 **** -0.24
15647 H 58.10652373249894 79.97567815792233 16.966010330770757 H 0.0 **** 0.06
15648 H 56.33423408306271 80.13319886368915 16.97228733722727 H 0.0 **** 0.06
15649 H 57.142345441348425 79.23192584871352 15.667636106702247 H 0.0 **** 0.06
15650 H 57.30133689301377 81.00297111128464 15.75645249648187 H 0.0 **** 0.06
15651 C 84.12146494948571 31.100616195128964 12.880049416463056 C 0.0 **** -0.24
15652 H 83.06066093819804 31.295716573295863 13.03766732286541 H 0.0 **** 0.06
15653 H 84.65348874347866 32.048107157807806 12.780669420888021 H 0.0 **** 0.06
15654 H 84.25137902631528 30.51380230840681 11.971534455469548 H 0.0 **** 0.06
15655 H 84.51968059085836 30.54851576579938 13.730565180399584 H 0.0 **** 0.06
15656 C 4.335684800314738 33.46489441110313 5.452395414702977 C 0.0 **** -0.24
15657 H 3.418923549151998 34.00305308555974 5.215577622350736 H 0.0 **** 0.06
15658 H 4.591040992672447 32.800921895973914 4.626190568389063 H 0.0 **** 0.06
15659 H 4.188122411395057 32.876286012667066 6.358146608879764 H 0.0 **** 0.06
15660 H 5.145426617395003 34.177333312169225 5.61035019845761 H 0.0 **** 0.06
15661 C 92.04366592397486 35.541717140183664 72.16961146378347 C 0.0 **** -0.24
15662 H 92.34877925445684 35.02851721135323 73.08135450837325 H 0.0 **** 0.06
15663 H 90.96008928733401 35.48083895875217 72.06389831864034 H 0.0 **** 0.06
15664 H 92.52037115900956 35.07103044033016 71.31042009619233 H 0.0 **** 0.06
15665 H 92.34473245902855 36.588566657454095 72.22455510541154 H 0.0 **** 0.06
15666 C 40.72046416969276 82.34344305335787 50.39721271063362 C 0.0 **** -0.24
15667 H 40.890211941013774 83.41196688118262 50.267396691323235 H 0.0 **** 0.06
15668 H 39.9866266592137 82.1857130974062 51.18768312930629 H 0.0 **** 0.06
15669 H 41.65847010200396 81.85755006889124 50.668199139672396 H 0.0 **** 0.06
15670 H 40.34915861595718 81.91938877336213 49.464360175933 H 0.0 **** 0.06
15671 C 100.73186588795346 81.66243990266591 28.052235915571345 C 0.0 **** -0.24
15672 H 100.84362987196019 82.03495593997418 27.033608723705044 H 0.0 **** 0.06
15673 H 99.68484022290698 81.72571263306125 28.34763987494628 H 0.0 **** 0.06
15674 H 101.33786732824714 82.26512057209064 28.7274520979565 H 0.0 **** 0.06
15675 H 101.06042300101083 80.6239926915648 28.096567947020446 H 0.0 **** 0.06
15676 C 39.5752007126606 32.85505773261747 24.908186646354807 C 0.0 **** -0.24
15677 H 38.98036215176276 33.20051945045117 25.75460265757755 H 0.0 **** 0.06
15678 H 38.92734220876008 32.35200485720611 24.190168623368407 H 0.0 **** 0.06
15679 H 40.337622380470265 32.15943679196002 25.259585906687022 H 0.0 **** 0.06
15680 H 40.05503540217305 33.70917004039478 24.43012017330389 H 0.0 **** 0.06
15681 C 30.76126792728408 99.66810513575831 97.27031875528826 C 0.0 **** -0.24
15682 H 31.22205257349512 100.05980638877452 98.17683313392742 H 0.0 **** 0.06
15683 H 30.234523640053055 100.47107209696051 96.75410441072451 H 0.0 **** 0.06
15684 H 30.055461851614638 98.87963761936686 97.53261913916033 H 0.0 **** 0.06
15685 H 31.534084957296557 99.26100477959919 96.61801065100475 H 0.0 **** 0.06
15686 C 81.92448467355501 89.4063375303231 88.16477778862466 C 0.0 **** -0.24
15687 H 81.77133845916242 90.46432550602574 87.94864946545205 H 0.0 **** 0.06
15688 H 82.87951666658051 89.08584759284301 87.74663801489797 H 0.0 **** 0.06
15689 H 81.11894761289781 88.82378822777949 87.71951945025063 H 0.0 **** 0.06
15690 H 81.93085017780808 89.25381293933285 89.24343407167353 H 0.0 **** 0.06
15691 C 13.359033748317145 70.71131850438462 18.868348977501512 C 0.0 **** -0.24
15692 H 13.871935117659461 71.52482251990085 19.380945394514924 H 0.0 **** 0.06
15693 H 13.981308730064256 70.34761621485029 18.05042158601408 H 0.0 **** 0.06
15694 H 12.410772294411004 71.0736142501242 18.469341725862762 H 0.0 **** 0.06
15695 H 13.170355806583473 69.90022338721224 19.57131343669174 H 0.0 **** 0.06
15696 C 33.916763227546085 68.49993166783037 14.089385230120584 C 0.0 **** -0.24
15697 H 32.84554059252312 68.29870682052822 14.072463551496952 H 0.0 **** 0.06
15698 H 34.23966529610851 68.65908281729426 15.118304022185441 H 0.0 **** 0.06
15699 H 34.128067571565765 69.39176350562745 13.499343572836409 H 0.0 **** 0.06
15700 H 34.452041542152614 67.64880882485316 13.667087002508282 H 0.0 **** 0.06
15701 C 65.29704249738165 15.791177481990303 59.16738193762649 C 0.0 **** -0.24
15702 H 64.21017673809058 15.706488370760155 59.21385126507289 H 0.0 **** 0.06
15703 H 65.74631671794612 14.83732844593257 59.445823043015785 H 0.0 **** 0.06
15704 H 65.63027762957535 16.566565174275482 59.85728916841532 H 0.0 **** 0.06
15705 H 65.59701104010082 16.053006245770945 58.15259166875491 H 0.0 **** 0.06
15706 C 78.61626796859707 30.230430677799944 50.175114169055895 C 0.0 **** -0.24
15707 H 78.29248526215014 29.649213729891414 49.31200391946243 H 0.0 **** 0.06
15708 H 78.92578445151162 29.55420949482945 50.971637325761066 H 0.0 **** 0.06
15709 H 77.79185781835224 30.851632742181096 50.52460463752274 H 0.0 **** 0.06
15710 H 79.4552705032034 30.865830656219714 49.89016267090296 H 0.0 **** 0.06
15711 C 42.014128267335224 42.35680674631277 99.9363192358399 C 0.0 **** -0.24
15712 H 42.43163124450777 43.03972953379008 99.1961513779564 H 0.0 **** 0.06
15713 H 41.290592519876185 42.88894064463943 100.55401596487997 H 0.0 **** 0.06
15714 H 42.81585129786069 41.97099710149956 100.5666745696777 H 0.0 **** 0.06
15715 H 41.520710927126316 41.528465184945105 99.42855426791016 H 0.0 **** 0.06
15716 C 30.176053145307634 75.15881084264353 101.92549314931935 C 0.0 **** -0.24
15717 H 29.259696547369956 74.57292020710622 101.99679149396823 H 0.0 **** 0.06
15718 H 29.9272490057822 76.19574994537149 101.6976389219748 H 0.0 **** 0.06
15719 H 30.804657024798075 74.7530165151376 101.13245981971284 H 0.0 **** 0.06
15720 H 30.711646299384796 75.11362202908796 102.87306562228812 H 0.0 **** 0.06
15721 C 42.08447912865091 101.87201062412876 102.31929145744846 C 0.0 **** -0.24
15722 H 43.06366347145223 101.40714865823858 102.43453505295318 H 0.0 **** 0.06
15723 H 42.01913207780436 102.34671061786607 101.33983118499728 H 0.0 **** 0.06
15724 H 41.945186377891076 102.62292312325911 103.09725847090371 H 0.0 **** 0.06
15725 H 41.30845715884908 101.11087653254093 102.40717523022013 H 0.0 **** 0.06
15726 C 14.28972603735805 27.013191087494107 106.70741303879572 C 0.0 **** -0.24
15727 H 14.71812229897219 27.99952342179955 106.88433634704117 H 0.0 **** 0.06
15728 H 14.229217803103325 26.468489986473912 107.65007321685076 H 0.0 **** 0.06
15729 H 14.920447596865174 26.462377031428247 106.00921612954201 H 0.0 **** 0.06
15730 H 13.290213529169876 27.12197562928185 106.28618817564939 H 0.0 **** 0.06
15731 C 51.032083274237124 61.308433807583384 66.70644569211717 C 0.0 **** -0.24
15732 H 52.102215622088465 61.1143957863745 66.77442128955664 H 0.0 **** 0.06
15733 H 50.495594804516145 60.62308419040181 67.36435133541215 H 0.0 **** 0.06
15734 H 50.70072488634983 61.16052202494777 65.67870330090562 H 0.0 **** 0.06
15735 H 50.8296297571018 62.33615024910483 67.00920009895043 H 0.0 **** 0.06
15736 C 80.2417100961066 52.394568164795146 68.30868386096051 C 0.0 **** -0.24
15737 H 80.96448640685685 52.212268146041254 69.1039359048487 H 0.0 **** 0.06
15738 H 79.23153055799361 52.328689412085225 68.71422060579675 H 0.0 **** 0.06
15739 H 80.36676319423253 51.648115802358376 67.52475129546349 H 0.0 **** 0.06
15740 H 80.40198267643405 53.389105593590585 67.8926493676899 H 0.0 **** 0.06
15741 C 54.45072149288013 82.0109897660512 18.40317153619708 C 0.0 **** -0.24
15742 H 55.48584630137152 81.67306370819992 18.44549515081917 H 0.0 **** 0.06
15743 H 54.02083715546664 81.99167987545826 19.40498555295659 H 0.0 **** 0.06
15744 H 53.87981085639055 81.35127941854226 17.7494047343298 H 0.0 **** 0.06
15745 H 54.41664932382067 83.02827151628443 18.011894547232316 H 0.0 **** 0.06
15746 C 72.13197070210938 54.286885687152676 94.06108871444144 C 0.0 **** -0.24
15747 H 71.90332411365222 54.26469688750552 92.99472987030771 H 0.0 **** 0.06
15748 H 71.20737802224649 54.405459276306715 94.62654199601417 H 0.0 **** 0.06
15749 H 72.79777703102917 55.12316896281368 94.27190587898298 H 0.0 **** 0.06
15750 H 72.61647138806157 53.35381811072233 94.34797661947044 H 0.0 **** 0.06
15751 C 90.86064672339307 0.16727039714943714 21.062150323979182 C 0.0 **** -0.24
15752 H 90.9826076650453 -0.9155549245274273 21.036880676404735 H 0.0 **** 0.06
15753 H 91.19463650236713 0.5922917794299849 20.1159561945571 H 0.0 **** 0.06
15754 H 91.45495915847317 0.5812816766426465 21.876932573871272 H 0.0 **** 0.06
15755 H 89.809511916237 0.4115477903227145 21.218904675907396 H 0.0 **** 0.06
15756 C 21.27208204187506 102.31265860160326 51.28597734689083 C 0.0 **** -0.24
15757 H 21.76190792066615 101.49756347640792 50.75171680352952 H 0.0 **** 0.06
15758 H 21.736723958763292 102.43642781410813 52.26384326179567 H 0.0 **** 0.06
15759 H 20.215356977540463 102.08023889707508 51.41209577179325 H 0.0 **** 0.06
15760 H 21.375711866710414 103.23535949427534 50.71483057103717 H 0.0 **** 0.06
15761 C 70.05452857056636 82.86587902379404 49.285082293010035 C 0.0 **** -0.24
15762 H 69.49008669779457 82.97816532634081 50.21121938006569 H 0.0 **** 0.06
15763 H 70.00894797397649 83.7956073553872 48.717456208226615 H 0.0 **** 0.06
15764 H 69.62386861506803 82.05711203716311 48.693126417998734 H 0.0 **** 0.06
15765 H 71.09280417913803 82.63218312083046 49.51844605662463 H 0.0 **** 0.06
15766 C 23.903706272020827 37.66409422504549 34.1770226723668 C 0.0 **** -0.24
15767 H 24.56520344443942 38.47973988002059 34.47062854389223 H 0.0 **** 0.06
15768 H 22.866764415711117 37.99089279986859 34.25968476245315 H 0.0 **** 0.06
15769 H 24.069452425343428 36.808969616956176 34.83217594976597 H 0.0 **** 0.06
15770 H 24.11438200743237 37.378985559902645 33.145997688382124 H 0.0 **** 0.06
15771 C 94.09234566746575 80.506625702214 45.43690708072512 C 0.0 **** -0.24
15772 H 93.19519951920996 79.89287223685898 45.35578876191349 H 0.0 **** 0.06
15773 H 94.65396578347251 80.21207736098094 46.323882201006484 H 0.0 **** 0.06
15774 H 93.80819595967716 81.5562594675378 45.51870963808844 H 0.0 **** 0.06
15775 H 94.71046621850603 80.36502683299585 44.55112133398214 H 0.0 **** 0.06
15776 C 42.54577266011819 70.50963885697945 102.16121783087422 C 0.0 **** -0.24
15777 H 41.82327711381723 69.98741554798363 102.78787856603364 H 0.0 **** 0.06
15778 H 42.042887226148736 70.9044456465356 101.27799442714306 H 0.0 **** 0.06
15779 H 43.32834886424516 69.8152203282622 101.8530000997015 H 0.0 **** 0.06
15780 H 42.98957317630263 71.3297982448382 102.72451467387071 H 0.0 **** 0.06
15781 C 42.41724743783728 89.84870460760186 19.91156827519461 C 0.0 **** -0.24
15782 H 41.65433175344703 90.43594229287021 19.400466262582285 H 0.0 **** 0.06
15783 H 42.060592742218056 88.82594580250861 20.041724556527583 H 0.0 **** 0.06
15784 H 42.62113221773895 90.2894565655717 20.887419399082205 H 0.0 **** 0.06
15785 H 43.33002729987 89.8427794993624 19.316936907597295 H 0.0 **** 0.06
15786 C 28.466511029317616 35.29997715899364 76.64008332894014 C 0.0 **** -0.24
15787 H 28.408904423120504 36.19638219172694 76.02302240692336 H 0.0 **** 0.06
15788 H 28.967704878008334 35.53744662997818 77.57975550438744 H 0.0 **** 0.06
15789 H 29.029552696059568 34.53087925329683 76.11201404638268 H 0.0 **** 0.06
15790 H 27.46056497288228 34.9366686742531 76.84708362448089 H 0.0 **** 0.06
15791 C 27.166190931316834 43.84813570541095 12.037521539781485 C 0.0 **** -0.24
15792 H 26.491006726191955 43.52687173761606 11.244694043395075 H 0.0 **** 0.06
15793 H 27.568025372481088 42.97302145641808 12.547992724057046 H 0.0 **** 0.06
15794 H 26.621940410007255 44.46718752134868 12.750185479269131 H 0.0 **** 0.06
15795 H 27.98528783667487 44.424915332581136 11.605645028376209 H 0.0 **** 0.06
15796 C 46.501926636528765 37.77075980496532 29.98100243166948 C 0.0 **** -0.24
15797 H 46.919233835994646 37.52827094162663 30.958767024827104 H 0.0 **** 0.06
15798 H 46.913224932834 37.092711687725654 29.233071833785573 H 0.0 **** 0.06
15799 H 46.75906214075633 38.79748343954933 29.72072639686595 H 0.0 **** 0.06
15800 H 45.41848881201673 37.66380257640813 30.011763647996005 H 0.0 **** 0.06
15801 C 57.45702891015879 104.99694129725464 90.41660546595358 C 0.0 **** -0.24
15802 H 57.95907037014301 105.72517915841294 91.05397876408017 H 0.0 **** 0.06
15803 H 57.79828839349836 103.99336019366692 90.67349593086618 H 0.0 **** 0.06
15804 H 57.69102914466762 105.20470837969361 89.37341787606545 H 0.0 **** 0.06
15805 H 56.379768529946226 105.06491717721184 90.56832910134733 H 0.0 **** 0.06
15806 C 58.898750874196736 42.562785286980784 14.123811283948612 C 0.0 **** -0.24
15807 H 58.28439842759269 41.81673960105965 14.628051921868774 H 0.0 **** 0.06
15808 H 58.264261245575 43.196251139956075 13.503962407206814 H 0.0 **** 0.06
15809 H 59.636579997380295 42.061608750026636 13.495722865480957 H 0.0 **** 0.06
15810 H 59.40955356062938 43.17478342095444 14.86657811383867 H 0.0 **** 0.06
15811 C 33.335927453172516 52.73297881556731 57.046226634129596 C 0.0 **** -0.24
15812 H 33.99409115404482 52.15860683183328 57.698183746003195 H 0.0 **** 0.06
15813 H 33.93176116830752 53.41137422403681 56.43576160492495 H 0.0 **** 0.06
15814 H 32.63578914185837 53.30756377965884 57.65163898483459 H 0.0 **** 0.06
15815 H 32.782415053064796 52.05197464344363 56.398947641528224 H 0.0 **** 0.06
15816 C 78.30093773033468 43.004611140833475 57.9194094878452 C 0.0 **** -0.24
15817 H 79.17855730775227 42.749998848482335 58.513803445147005 H 0.0 **** 0.06
15818 H 77.44838531750668 43.16137177728194 58.580354418317995 H 0.0 **** 0.06
15819 H 78.08103599542872 42.190556303048 57.22871009189066 H 0.0 **** 0.06
15820 H 78.49577230065074 43.916517634521966 57.35476999602491 H 0.0 **** 0.06
15821 C 66.01036610934148 48.375682358636354 80.68881637276476 C 0.0 **** -0.24
15822 H 65.7400033218301 48.17331867138698 81.72485767380158 H 0.0 **** 0.06
15823 H 65.20931738057608 48.93706504813375 80.20653100245562 H 0.0 **** 0.06
15824 H 66.16256142355203 47.433028179296706 80.1623950324265 H 0.0 **** 0.06
15825 H 66.93096770471125 48.95956655090843 80.66161878212006 H 0.0 **** 0.06
15826 C 45.51677015508235 101.69303604040455 82.8028230893467 C 0.0 **** -0.24
15827 H 45.948630750854335 101.29310615137366 83.71922209138711 H 0.0 **** 0.06
15828 H 44.47120975308357 101.3927582806617 82.73335781733869 H 0.0 **** 0.06
15829 H 46.06417066822857 101.30698374818863 81.94342796857518 H 0.0 **** 0.06
15830 H 45.581392320964355 102.78177256362677 82.81505167279181 H 0.0 **** 0.06
15831 C 95.88797816684841 29.153465769927294 104.06364394852763 C 0.0 **** -0.24
15832 H 96.54663012670207 29.238475568636204 103.19858054266066 H 0.0 **** 0.06
15833 H 95.22895940934514 30.020895173899362 104.10369672319977 H 0.0 **** 0.06
15834 H 96.48677421020277 29.10909591621919 104.9728761969532 H 0.0 **** 0.06
15835 H 95.29050101914648 28.246021950114766 103.97664696878073 H 0.0 **** 0.06
15836 C 38.25532561132525 67.75302661413133 104.37711079011613 C 0.0 **** -0.24
15837 H 39.2424879365509 68.21629866592485 104.39458412472406 H 0.0 **** 0.06
15838 H 38.183306591622454 67.08424716812169 103.51952172075949 H 0.0 **** 0.06
15839 H 37.49208992353488 68.52778386917265 104.29950138305364 H 0.0 **** 0.06
15840 H 38.105164192162675 67.18548109910881 105.29505104173367 H 0.0 **** 0.06
15841 C 47.89034100691339 96.98278133153639 31.542844160545833 C 0.0 **** -0.24
15842 H 48.51259675473722 96.99805567145543 30.64763009662562 H 0.0 **** 0.06
15843 H 47.188478705069144 96.15159830944381 31.482946310252835 H 0.0 **** 0.06
15844 H 47.33929407955782 97.92073845580498 31.617860608712668 H 0.0 **** 0.06
15845 H 48.523284520790355 96.86266553689356 32.421929138862666 H 0.0 **** 0.06
15846 C 92.03643489915707 1.0659895059438247 39.13488810392184 C 0.0 **** -0.24
15847 H 92.56802533572785 0.9383840278465216 38.192227439449795 H 0.0 **** 0.06
15848 H 92.75441489042278 1.0968650764893244 39.95530275775775 H 0.0 **** 0.06
15849 H 91.35189833498858 0.230481974932494 39.28184922971349 H 0.0 **** 0.06
15850 H 91.47280646257393 1.9980696205717594 39.11018375842619 H 0.0 **** 0.06
15851 C 89.19526112494985 69.05227441336177 69.65005107869021 C 0.0 **** -0.24
15852 H 88.68732772279509 69.85863245453032 70.17997476974062 H 0.0 **** 0.06
15853 H 90.21340688027097 68.95405452206643 70.02838934168476 H 0.0 **** 0.06
15854 H 89.2223997423423 69.27978022801491 68.58492279723528 H 0.0 **** 0.06
15855 H 88.6569696058615 68.11759844437077 69.80959672831696 H 0.0 **** 0.06
15856 C 1.7822049336135706 79.00440647374052 10.980347735290081 C 0.0 **** -0.24
15857 H 1.2510180739331958 78.28762304036616 10.35472987932502 H 0.0 **** 0.06
15858 H 2.772043476861839 79.18682650487034 10.562324669043164 H 0.0 **** 0.06
15859 H 1.881802155930771 78.60208059407421 11.988069894269671 H 0.0 **** 0.06
15860 H 1.2231728967152264 79.93900363867596 11.016166585467886 H 0.0 **** 0.06
15861 C 7.85424400903679 36.23133557899217 97.05814889753725 C 0.0 **** -0.24
15862 H 8.561016259200812 35.826132767973505 96.33346178452437 H 0.0 **** 0.06
15863 H 7.061398653098195 36.763473717814705 96.53358632114836 H 0.0 **** 0.06
15864 H 8.374077018353375 36.91783374752451 97.72615682985234 H 0.0 **** 0.06
15865 H 7.4230400825607035 35.416339990742784 97.6392255348941 H 0.0 **** 0.06
15866 C 96.83415967154565 42.70572295899028 32.274006655546856 C 0.0 **** -0.24
15867 H 97.66789387656266 43.39728150523595 32.39790091693715 H 0.0 **** 0.06
15868 H 95.96152727808914 43.09256530463003 32.80031969404487 H 0.0 **** 0.06
15869 H 97.10553064101953 41.73380305140253 32.68519659058171 H 0.0 **** 0.06
15870 H 96.60389901721283 42.60169777298563 31.214050305359876 H 0.0 **** 0.06
15871 C 53.68907208835983 47.53290016020304 1.2517508510841857 C 0.0 **** -0.24
15872 H 53.27703209860937 48.541569064132545 1.2047736655921186 H 0.0 **** 0.06
15873 H 54.77063350531918 47.587976893505356 1.3778943825475833 H 0.0 **** 0.06
15874 H 53.45658374301923 47.00327758058444 0.32725647461681007 H 0.0 **** 0.06
15875 H 53.25057201790377 47.00019868913898 2.0961693397141774 H 0.0 **** 0.06
15876 C 59.31129592260464 50.84142420872225 10.31506972515973 C 0.0 **** -0.24
15877 H 59.79585713444351 51.74054821846837 9.934803842385861 H 0.0 **** 0.06
15878 H 58.56553387941051 50.50014207818998 9.596885066197046 H 0.0 **** 0.06
15879 H 58.8255983427959 51.06578688976799 11.265372840750715 H 0.0 **** 0.06
15880 H 60.05757874207029 50.06136813751645 10.463144543549689 H 0.0 **** 0.06
15881 C 68.55227091851054 75.16493463569378 66.87896551854055 C 0.0 **** -0.24
15882 H 67.52319097908719 75.0925410044594 67.23059790896465 H 0.0 **** 0.06
15883 H 68.83519382094494 76.21466857438423 66.79826226706166 H 0.0 **** 0.06
15884 H 68.63545480709988 74.68867518720896 65.90217993604327 H 0.0 **** 0.06
15885 H 69.21357103060885 74.66251297047103 67.58545711433425 H 0.0 **** 0.06
15886 C 39.3718523987759 54.538811932983364 51.100268558603936 C 0.0 **** -0.24
15887 H 40.34857312625394 55.01946510046823 51.063884785197295 H 0.0 **** 0.06
15888 H 39.49723012641334 53.45631603421082 51.060146133638796 H 0.0 **** 0.06
15889 H 38.77284287460799 54.8669511766175 50.250230337246855 H 0.0 **** 0.06
15890 H 38.86694838387666 54.81146001004509 52.02758226954605 H 0.0 **** 0.06
15891 C 26.036286298259313 22.112157913767618 6.797714836713823 C 0.0 **** -0.24
15892 H 26.668148909314198 22.976243602234064 6.591799126035596 H 0.0 **** 0.06
15893 H 25.56847687161749 22.22880228235698 7.775997108185862 H 0.0 **** 0.06
15894 H 26.643070903182178 21.20680369345024 6.789061614873162 H 0.0 **** 0.06
15895 H 25.26351412324388 22.03812807122398 6.031892727467067 H 0.0 **** 0.06
15896 C 62.368601542656165 60.664204608919306 16.54819159050956 C 0.0 **** -0.24
15897 H 61.3918387044867 60.76181930646288 16.07266082313936 H 0.0 **** 0.06
15898 H 62.252617036147115 60.72811495435195 17.630170229130044 H 0.0 **** 0.06
15899 H 63.02163785318663 61.46596098068085 16.203588919350977 H 0.0 **** 0.06
15900 H 62.805909255234724 59.70156644644669 16.285000790052834 H 0.0 **** 0.06
15901 C 53.26091945709717 80.82230208757318 9.267384636729034 C 0.0 **** -0.24
15902 H 52.45129241277295 80.63899908397826 9.973047245230987 H 0.0 **** 0.06
15903 H 53.51209292632574 79.89435260088794 8.753277290560007 H 0.0 **** 0.06
15904 H 54.13513450584228 81.1884597801756 9.804998127437585 H 0.0 **** 0.06
15905 H 52.944241108150536 81.56884460473307 8.537963720774158 H 0.0 **** 0.06
15906 C 68.6733580496677 68.43548886201769 79.09953063736818 C 0.0 **** -0.24
15907 H 68.19862926313918 68.7760560580387 80.0199279912889 H 0.0 **** 0.06
15908 H 69.62387516283057 67.95820986382827 79.33671971107746 H 0.0 **** 0.06
15909 H 68.84756998845448 69.28789180213403 78.44314422628533 H 0.0 **** 0.06
15910 H 68.02155908256151 67.71876751286678 78.59916941004661 H 0.0 **** 0.06
15911 C 7.544618536856433 15.423663995503318 34.64762127854679 C 0.0 **** -0.24
15912 H 7.513799298534394 14.486047575041056 35.20164319129598 H 0.0 **** 0.06
15913 H 6.717710268590366 16.059530660896527 34.96575342509078 H 0.0 **** 0.06
15914 H 7.45594712899063 15.218563140322416 33.58091808024568 H 0.0 **** 0.06
15915 H 8.48972500328209 15.930394267374439 34.843317254471025 H 0.0 **** 0.06
15916 C 14.195253449490782 30.67238039336266 39.61446279584857 C 0.0 **** -0.24
15917 H 14.276975626119356 29.74499682969278 40.180329268322 H 0.0 **** 0.06
15918 H 14.163452037104044 30.44594074422656 38.54886556984911 H 0.0 **** 0.06
15919 H 15.056164035676382 31.305334817649538 39.82683584333262 H 0.0 **** 0.06
15920 H 13.281761278453793 31.193653425914363 39.90269055294084 H 0.0 **** 0.06
15921 C 67.21633389082189 93.80197667454962 45.254239566110044 C 0.0 **** -0.24
15922 H 66.95833778066763 94.75959068342979 44.801657928304905 H 0.0 **** 0.06
15923 H 66.767865344624 93.7354638725783 46.24505926679066 H 0.0 **** 0.06
15924 H 68.29989394819 93.72137298501843 45.338223694768004 H 0.0 **** 0.06
15925 H 66.83856621716879 92.99221936331838 44.62855316572242 H 0.0 **** 0.06
15926 C 61.55171072902971 1.4769319094135653 10.422548874982226 C 0.0 **** -0.24
15927 H 61.286000989749354 0.4674222082473136 10.735490057708091 H 0.0 **** 0.06
15928 H 61.605251668653466 2.125692504672628 11.296573328553308 H 0.0 **** 0.06
15929 H 60.79602155861079 1.8547622147318918 9.734311403403666 H 0.0 **** 0.06
15930 H 62.52057108007958 1.4588802120370588 9.923589500020256 H 0.0 **** 0.06
15931 C 69.9074133177341 100.6992464116822 18.065563075377923 C 0.0 **** -0.24
15932 H 70.09675329429695 99.6833992108084 18.411997097423153 H 0.0 **** 0.06
15933 H 69.31719676710806 100.66617282457358 17.150325825967002 H 0.0 **** 0.06
15934 H 70.85679581076273 101.19797127871465 17.868824348976517 H 0.0 **** 0.06
15935 H 69.36078019871634 101.24878636617197 18.832135833976082 H 0.0 **** 0.06
15936 C 76.96939282867201 95.141534927001 8.841144475442434 C 0.0 **** -0.24
15937 H 77.93848954992208 95.05158078775814 8.349094109545916 H 0.0 **** 0.06
15938 H 76.18423178142943 95.20905647308302 8.087466346250949 H 0.0 **** 0.06
15939 H 76.95790213883681 96.03889129126058 9.459092844769401 H 0.0 **** 0.06
15940 H 76.79758366065703 94.26638400882464 9.46768192903616 H 0.0 **** 0.06
15941 C 84.80525008198117 28.29563191252518 54.591340274148095 C 0.0 **** -0.24
15942 H 84.49704450524857 28.824764765974834 53.689172612966495 H 0.0 **** 0.06
15943 H 83.940110090194 27.803270324442536 55.03544225452558 H 0.0 **** 0.06
15944 H 85.22427024094034 29.005926277977863 55.30339412229881 H 0.0 **** 0.06
15945 H 85.55753793022532 27.549732790818723 54.33548448403368 H 0.0 **** 0.06
15946 C 62.464157979948766 86.74043597600098 105.27440321712663 C 0.0 **** -0.24
15947 H 62.201337876522246 87.36357810164498 106.1291623567335 H 0.0 **** 0.06
15948 H 62.79434132161555 85.76251035646573 105.62603824445986 H 0.0 **** 0.06
15949 H 63.26893483952409 87.21502726973557 104.71302810651828 H 0.0 **** 0.06
15950 H 61.592936486572455 86.62123707350435 104.63132983295246 H 0.0 **** 0.06
15951 C 14.212317787322519 18.680510526843435 86.50653811206034 C 0.0 **** -0.24
15952 H 14.079238191008812 19.243275461342137 87.43074219029953 H 0.0 **** 0.06
15953 H 14.276624188642003 17.617427077215524 86.73441063320658 H 0.0 **** 0.06
15954 H 15.130411365108358 19.003999052166606 86.01467418099362 H 0.0 **** 0.06
15955 H 13.364135072519218 18.86090403490158 85.84641315855004 H 0.0 **** 0.06
15956 C 65.88883898954535 18.030747127915106 105.65174954451224 C 0.0 **** -0.24
15957 H 64.98296596617368 17.651561029674127 105.1788154333539 H 0.0 **** 0.06
15958 H 65.80810419998679 17.918428942023127 106.73355603722354 H 0.0 **** 0.06
15959 H 66.01297209831458 19.085436070526782 105.4048610233465 H 0.0 **** 0.06
15960 H 66.74965189891978 17.46854112365756 105.29127596565253 H 0.0 **** 0.06
15961 C 44.13492659081889 16.057640986845634 28.874928056619183 C 0.0 **** -0.24
15962 H 45.129301287769074 15.704120952094627 28.60175546067461 H 0.0 **** 0.06
15963 H 43.63464950249792 16.45456931127659 27.9920586382367 H 0.0 **** 0.06
15964 H 44.22321097630837 16.842509300269953 29.626688220779954 H 0.0 **** 0.06
15965 H 43.553426915417354 15.229610426943175 29.28028743568109 H 0.0 **** 0.06
15966 C 20.13224579747795 13.078575781961433 31.559127362776167 C 0.0 **** -0.24
15967 H 21.145090139444193 13.445982346533526 31.72692040093756 H 0.0 **** 0.06
15968 H 19.920552677282046 13.073214995444616 30.489634484041318 H 0.0 **** 0.06
15969 H 19.421013341827006 13.730267340272093 32.067091176590424 H 0.0 **** 0.06
15970 H 20.042776521630856 12.06702764841782 31.95278869188627 H 0.0 **** 0.06
15971 C 41.62930661116218 27.37089925011125 24.114502367462276 C 0.0 **** -0.24
15972 H 40.858522826684585 27.844044602332147 24.722639298434952 H 0.0 **** 0.06
15973 H 42.047170535261294 26.520972196752282 24.65393767070088 H 0.0 **** 0.06
15974 H 42.42039781047595 28.092535378948952 23.905495623802 H 0.0 **** 0.06
15975 H 41.19280827541801 27.027807910447564 23.176241601684303 H 0.0 **** 0.06
15976 C 6.9373244221982695 58.478281195405145 90.91488260963837 C 0.0 **** -0.24
15977 H 7.588803587166881 59.28071317452128 91.26022084926001 H 0.0 **** 0.06
15978 H 7.543492580940027 57.63240829455469 90.58888420862326 H 0.0 **** 0.06
15979 H 6.3327623522060055 58.834456441123166 90.08136922702067 H 0.0 **** 0.06
15980 H 6.283715192641035 58.16511535333308 91.72979051562248 H 0.0 **** 0.06
15981 C 29.8357976533635 90.95511673590981 36.08625406306009 C 0.0 **** -0.24
15982 H 29.17312683861735 90.6157117119127 35.29028150138166 H 0.0 **** 0.06
15983 H 29.254567926311125 91.13303340025988 36.99174808956233 H 0.0 **** 0.06
15984 H 30.32570439622586 91.87932413996472 35.78054710721049 H 0.0 **** 0.06
15985 H 30.58965304145491 90.19161328291712 36.28035011017677 H 0.0 **** 0.06
15986 C 57.09375926464523 8.266324284849532 63.89786849477463 C 0.0 **** -0.24
15987 H 56.78760941696692 8.437678357475022 62.86610799078257 H 0.0 **** 0.06
15988 H 56.22619472922776 8.350407006500632 64.55270251991593 H 0.0 **** 0.06
15989 H 57.83831196625916 9.010696812054732 64.18320093882912 H 0.0 **** 0.06
15990 H 57.52320931429942 7.268890223924586 63.98893787980856 H 0.0 **** 0.06
15991 C 82.29499879706634 80.60126254218093 34.75437366675676 C 0.0 **** -0.24
15992 H 82.80367242185748 81.09683945770595 33.926577532382794 H 0.0 **** 0.06
15993 H 83.015533449677 80.01112914099409 35.32166031644775 H 0.0 **** 0.06
15994 H 81.51752524729116 79.94630570917454 34.36199616876755 H 0.0 **** 0.06
15995 H 81.84505224622308 81.35117803011383 35.404496379144916 H 0.0 **** 0.06
15996 C 103.30972836082495 18.81474517350418 103.78476114602935 C 0.0 **** -0.24
15997 H 103.34468335512577 19.492656114393668 104.63747129756206 H 0.0 **** 0.06
15998 H 103.98018438717273 17.9732402652661 103.96252775121292 H 0.0 **** 0.06
15999 H 103.6229054160587 19.345468677368103 102.88497869482316 H 0.0 **** 0.06
16000 H 102.29249055636805 18.447233550995392 103.65424253760716 H 0.0 **** 0.06
16001 C 28.976107671431116 72.56573731886111 59.0849840567663 C 0.0 **** -0.24
16002 H 29.986064578197137 72.3188987642001 58.75825257229545 H 0.0 **** 0.06
16003 H 28.301796149459108 71.74819924538403 58.8269603217139 H 0.0 **** 0.06
16004 H 28.647346310063824 73.47893545918924 58.58933820379019 H 0.0 **** 0.06
16005 H 28.970430933953935 72.71519269556813 60.16462777927819 H 0.0 **** 0.06
16006 C 24.357466105365205 39.56138524020247 12.97849385206871 C 0.0 **** -0.24
16007 H 25.030773666470054 38.85977075828194 13.469069707402724 H 0.0 **** 0.06
16008 H 24.219098771539166 39.264817969112755 11.937781529873916 H 0.0 **** 0.06
16009 H 24.784760361143867 40.56335894956777 13.016454437036657 H 0.0 **** 0.06
16010 H 23.394043964225745 39.55797898950138 13.488562371696275 H 0.0 **** 0.06
16011 C 36.066085961481704 26.465632207525687 7.679539322632934 C 0.0 **** -0.24
16012 H 35.05096454168071 26.532497503123817 8.071271700823203 H 0.0 **** 0.06
16013 H 36.39137237415062 27.451272106097402 7.345109217598832 H 0.0 **** 0.06
16014 H 36.08591233701637 25.77133039257736 6.839689575514797 H 0.0 **** 0.06
16015 H 36.7343699219457 26.108618987376865 8.462867348389295 H 0.0 **** 0.06
16016 C 55.619932832633765 23.588757770800356 17.57515358106454 C 0.0 **** -0.24
16017 H 56.2386876104612 24.292586225592686 17.019424608711603 H 0.0 **** 0.06
16018 H 56.24528278626235 22.786451386683694 17.967201569478704 H 0.0 **** 0.06
16019 H 54.86256488333834 23.16851514422507 16.912774029151663 H 0.0 **** 0.06
16020 H 55.13252300568712 24.106297627615618 18.400822897688016 H 0.0 **** 0.06
16021 C 16.98456826346424 8.096324819531162 9.529013525443503 C 0.0 **** -0.24
16022 H 17.378129353041004 9.07206070760904 9.24173506092751 H 0.0 **** 0.06
16023 H 15.898881654707338 8.154669473856785 9.614443360450338 H 0.0 **** 0.06
16024 H 17.40964450984518 7.8017300413847295 10.488869681763589 H 0.0 **** 0.06
16025 H 17.250627777245995 7.359830480804021 8.771274719432682 H 0.0 **** 0.06
16026 C 12.25600435806452 44.8154968685463 38.39779112090201 C 0.0 **** -0.24
16027 H 12.430156341064642 44.83978034773805 39.47406346607272 H 0.0 **** 0.06
16028 H 11.921373671784758 43.81958653439918 38.10730941467091 H 0.0 **** 0.06
16029 H 13.181965043059439 45.05626016692208 37.875096589417836 H 0.0 **** 0.06
16030 H 11.490783788488695 45.54686541253014 38.1376406994184 H 0.0 **** 0.06
16031 C 47.875126742625525 92.1372586120184 46.11356984870133 C 0.0 **** -0.24
16032 H 47.47798529282801 92.78525861027006 45.33220029387809 H 0.0 **** 0.06
16033 H 47.78493867756879 91.09667448296179 45.80186086428114 H 0.0 **** 0.06
16034 H 47.31269373393803 92.29237333525629 47.03421105710899 H 0.0 **** 0.06
16035 H 48.925101277840895 92.37673964091829 46.283378693814825 H 0.0 **** 0.06
16036 C 80.5511303295964 9.729937255070254 103.48918764347093 C 0.0 **** -0.24
16037 H 81.61844125872281 9.627830638414693 103.29158361829747 H 0.0 **** 0.06
16038 H 80.36190122089452 9.568816757592302 104.5509796598869 H 0.0 **** 0.06
16039 H 80.00171999715572 8.990744642167598 102.90594559257926 H 0.0 **** 0.06
16040 H 80.22414117314544 10.731433505759739 103.20938938874369 H 0.0 **** 0.06
16041 C 33.912467095400146 6.662334666939927 107.00183679832138 C 0.0 **** -0.24
16042 H 34.92849179561118 6.765326721591393 107.38284880816178 H 0.0 **** 0.06
16043 H 33.645809465538264 7.55396575471616 106.43349934059387 H 0.0 **** 0.06
16044 H 33.22185806613002 6.543744545986129 107.83593762910307 H 0.0 **** 0.06
16045 H 33.85491832618277 5.786890940587767 106.35462496964554 H 0.0 **** 0.06
16046 C 27.416732862641165 95.57232583270957 24.203869608008233 C 0.0 **** -0.24
16047 H 27.52846338280525 95.9824957334601 25.207834087797238 H 0.0 **** 0.06
16048 H 26.652602480773226 94.79467473438751 24.212828644636232 H 0.0 **** 0.06
16049 H 28.365492492905453 95.14536678954562 23.878015544772353 H 0.0 **** 0.06
16050 H 27.11982252151395 96.36578534553075 23.517657554793402 H 0.0 **** 0.06
16051 C 5.23274722905353 7.294555825706652 43.142256564189324 C 0.0 **** -0.24
16052 H 5.402892381235574 6.909146866176144 42.136461199845485 H 0.0 **** 0.06
16053 H 5.757183607328386 6.670099884035665 43.86463659567124 H 0.0 **** 0.06
16054 H 4.16393787907424 7.284448432167125 43.35899646007607 H 0.0 **** 0.06
16055 H 5.605875939568364 8.317207040993338 43.20656219341407 H 0.0 **** 0.06
16056 C 59.17456489623953 103.62081401290345 103.08171017604923 C 0.0 **** -0.24
16057 H 59.91923244296336 103.59435574058989 102.28702542733282 H 0.0 **** 0.06
16058 H 59.44845980462031 102.90868184051726 103.86034556586657 H 0.0 **** 0.06
16059 H 58.198601916460916 103.35618478234187 102.67420758442012 H 0.0 **** 0.06
16060 H 59.13111316706619 104.62447076399275 103.5067053057918 H 0.0 **** 0.06
16061 C 85.24146540430718 43.94670569872363 10.432674874565663 C 0.0 **** -0.24
16062 H 85.66288351477982 44.92482396951823 10.665647306361478 H 0.0 **** 0.06
16063 H 85.84424259144555 43.17052301001894 10.905271797766659 H 0.0 **** 0.06
16064 H 85.23969469902119 43.79949983484471 9.352558669846388 H 0.0 **** 0.06
16065 H 84.21970068974724 43.89309307528396 10.808369242807345 H 0.0 **** 0.06
16066 C 40.58716950516425 53.221455397631004 84.83005698157083 C 0.0 **** -0.24
16067 H 39.76399769099067 53.62912211434614 85.41792752790863 H 0.0 **** 0.06
16068 H 41.41772683952481 53.927586263200595 84.83071890951143 H 0.0 **** 0.06
16069 H 40.253927051181336 53.05296830109991 83.80675780620064 H 0.0 **** 0.06
16070 H 40.9122380981974 52.277052770471066 85.26738389359147 H 0.0 **** 0.06
16071 C 103.90925068395563 78.00668505940692 60.59122484570702 C 0.0 **** -0.24
16072 H 104.6362056729588 78.79894698650477 60.77415996922146 H 0.0 **** 0.06
16073 H 103.99887969708817 77.6624304870048 59.56155544487736 H 0.0 **** 0.06
16074 H 102.90348495330426 78.392241246818 60.760010083472494 H 0.0 **** 0.06
16075 H 104.09880273559992 77.17648536996828 61.27152933400903 H 0.0 **** 0.06
16076 C 47.07631339601072 5.697841570615026 102.95474066708262 C 0.0 **** -0.24
16077 H 46.18391767454787 5.402428358214536 103.50737043522064 H 0.0 **** 0.06
16078 H 47.961433105322364 5.472589861279175 103.54999732892207 H 0.0 **** 0.06
16079 H 47.0386168865972 6.767137540366718 102.74887719845167 H 0.0 **** 0.06
16080 H 47.120386270606105 5.147349020401975 102.01489160990369 H 0.0 **** 0.06
16081 C 44.977318586236684 57.33902317469193 80.1045789313205 C 0.0 **** -0.24
16082 H 45.85620872414241 56.75475846160299 79.83389363270567 H 0.0 **** 0.06
16083 H 45.14217254976909 58.38524196529812 79.84653410771621 H 0.0 **** 0.06
16084 H 44.799290200972244 57.252830615204914 81.17659919951834 H 0.0 **** 0.06
16085 H 44.110111910876654 56.96271837305159 79.56059450746648 H 0.0 **** 0.06
16086 C 35.29254904386039 58.13813658653149 82.27276916085918 C 0.0 **** -0.24
16087 H 34.79091828524349 58.77919766865539 82.99834205301725 H 0.0 **** 0.06
16088 H 36.057682238910786 58.712014922140995 81.75018084677014 H 0.0 **** 0.06
16089 H 34.56330220954419 57.76311223141566 81.55466854433813 H 0.0 **** 0.06
16090 H 35.75718621803736 57.29898883155032 82.79137603579078 H 0.0 **** 0.06
16091 C 46.897942426670795 22.624323560834355 103.8893738388999 C 0.0 **** -0.24
16092 H 46.43830103751168 22.687431552198106 104.87611236508255 H 0.0 **** 0.06
16093 H 46.797871808044874 21.609457204754207 103.5063375578936 H 0.0 **** 0.06
16094 H 47.95464115381634 22.882813177879143 103.96471752738168 H 0.0 **** 0.06
16095 H 46.40157056257243 23.319978998954696 103.21276228694637 H 0.0 **** 0.06
16096 C 46.324465844705855 31.629712853786287 79.43351622711552 C 0.0 **** -0.24
16097 H 46.0459547821639 32.534677787821465 79.97392143147525 H 0.0 **** 0.06
16098 H 46.54064678819134 31.879607611137004 78.39489112200873 H 0.0 **** 0.06
16099 H 45.50215527214675 30.91553527071798 79.47347116816499 H 0.0 **** 0.06
16100 H 47.2106887294259 31.19130757005925 79.89385803233914 H 0.0 **** 0.06
16101 C 35.38003029219715 20.095039557834042 37.62629751173793 C 0.0 **** -0.24
16102 H 35.37227876960887 19.72479780903477 38.65125490061095 H 0.0 **** 0.06
16103 H 35.674801730521196 19.29074832764968 36.95144554723757 H 0.0 **** 0.06
16104 H 36.08987235986132 20.917090085366652 37.54234626745918 H 0.0 **** 0.06
16105 H 34.38313817308125 20.44662471784349 37.35970287057236 H 0.0 **** 0.06
16106 C 78.71143597304902 105.18621746405091 95.57424000805065 C 0.0 **** -0.24
16107 H 78.944028935967 104.84246846204579 96.58187973602028 H 0.0 **** 0.06
16108 H 77.68043220185686 105.5377354452772 95.53911132299763 H 0.0 **** 0.06
16109 H 78.83889868333657 104.36347180816472 94.87045057384046 H 0.0 **** 0.06
16110 H 79.3831520790416 106.00115241245231 95.30487928393757 H 0.0 **** 0.06
16111 C 66.35013098960505 83.58835265543445 59.15533316557291 C 0.0 **** -0.24
16112 H 65.91423980762661 82.83503365344299 58.498730477712265 H 0.0 **** 0.06
16113 H 67.36997183102153 83.30005522672741 59.410536943074774 H 0.0 **** 0.06
16114 H 65.75497316945862 83.66557826368884 60.06520572761474 H 0.0 **** 0.06
16115 H 66.36131098643898 84.55140306992479 58.64506989282545 H 0.0 **** 0.06
16116 C 47.367859461856085 22.835030247236574 19.59018131023816 C 0.0 **** -0.24
16117 H 46.847500393630995 22.915043570823315 20.545295479352077 H 0.0 **** 0.06
16118 H 46.742670241441864 23.253265343157864 18.80173377260636 H 0.0 **** 0.06
16119 H 47.57284497412335 21.78662372088513 19.374806340405286 H 0.0 **** 0.06
16120 H 48.30671378999338 23.385575910594127 19.6413250990627 H 0.0 **** 0.06
16121 C 67.06790926366773 44.75221801405315 46.22466675762519 C 0.0 **** -0.24
16122 H 66.6424618927457 44.00713272342525 46.897495254508385 H 0.0 **** 0.06
16123 H 68.13541500138118 44.56657171333233 46.10572701741427 H 0.0 **** 0.06
16124 H 66.91525022267166 45.74656000560946 46.64257567386812 H 0.0 **** 0.06
16125 H 66.575914837413 44.68615975139838 45.25339255550364 H 0.0 **** 0.06
16126 C 39.458667148153324 10.118089355010511 103.49778747565745 C 0.0 **** -0.24
16127 H 39.36999397841939 10.913862988475927 104.23713589454002 H 0.0 **** 0.06
16128 H 39.48630856193162 9.15324352465322 104.00329429353343 H 0.0 **** 0.06
16129 H 40.3764843909822 10.255418842227556 102.92538126976223 H 0.0 **** 0.06
16130 H 38.60245172153614 10.152612707684057 102.82436712082676 H 0.0 **** 0.06
16131 C 65.32118537430884 7.158636813184927 42.14543587831395 C 0.0 **** -0.24
16132 H 65.96351802124823 7.127442631279109 43.02537075619978 H 0.0 **** 0.06
16133 H 65.93694744773438 7.2294250026842235 41.24897963573838 H 0.0 **** 0.06
16134 H 64.66600883225777 8.02797222450576 42.205887297381935 H 0.0 **** 0.06
16135 H 64.7184726815967 6.251018000929207 42.10261947738246 H 0.0 **** 0.06
16136 C 99.21107207875286 27.815890935604386 75.68624202791125 C 0.0 **** -0.24
16137 H 98.34012939689273 27.677229185681995 75.04490084210494 H 0.0 **** 0.06
16138 H 99.53820843628188 28.854253487088897 75.63512735417214 H 0.0 **** 0.06
16139 H 100.01664120040641 27.163442783912217 75.34844247765164 H 0.0 **** 0.06
16140 H 98.94892738542183 27.567078454524278 76.71396337053756 H 0.0 **** 0.06
16141 C 57.5666054090809 44.43283526547086 8.979236753793192 C 0.0 **** -0.24
16142 H 57.920772982957146 43.68337722836131 8.2716000695636 H 0.0 **** 0.06
16143 H 58.33143970640806 45.19827732517436 9.11059374560565 H 0.0 **** 0.06
16144 H 57.358802265497744 43.957489087300075 9.938178148985985 H 0.0 **** 0.06
16145 H 56.65540668146071 44.8921974210474 8.596575051017636 H 0.0 **** 0.06
16146 C 17.915931210513662 96.32811623938537 65.78997738690975 C 0.0 **** -0.24
16147 H 18.896763384253987 95.89209224237263 65.97581592695784 H 0.0 **** 0.06
16148 H 17.247932493315574 95.56452467762134 65.39134177309722 H 0.0 **** 0.06
16149 H 18.010990084527762 97.14015591197833 65.06823148573736 H 0.0 **** 0.06
16150 H 17.508125741458628 96.71700428358147 66.72271179150792 H 0.0 **** 0.06
16151 C 79.86467374109066 39.72381011125586 95.26120035591543 C 0.0 **** -0.24
16152 H 80.59564676633909 38.91910219067694 95.18342955163484 H 0.0 **** 0.06
16153 H 79.82752242568165 40.08158352355619 96.29037171884448 H 0.0 **** 0.06
16154 H 78.88300594366137 39.351664809394066 94.96930160074254 H 0.0 **** 0.06
16155 H 80.15459117619105 40.54210735604957 94.60138655691287 H 0.0 **** 0.06
16156 C 91.73607788928486 74.66654148349939 98.24852035687864 C 0.0 **** -0.24
16157 H 92.10527205806905 73.65549463462047 98.4220849481557 H 0.0 **** 0.06
16158 H 90.94796525389047 74.64030145825839 97.49458485553609 H 0.0 **** 0.06
16159 H 92.55383029793623 75.29522003037772 97.89763584193409 H 0.0 **** 0.06
16160 H 91.33724199593338 75.07260914059023 99.17818034909105 H 0.0 **** 0.06
16161 C 70.41405317647678 58.68711122077548 44.069387031466874 C 0.0 **** -0.24
16162 H 70.72207658814767 57.74687364203002 43.61375723882213 H 0.0 **** 0.06
16163 H 69.68244644749012 58.489128551169884 44.853354637665404 H 0.0 **** 0.06
16164 H 69.96875909901928 59.330996022391595 43.31029395425003 H 0.0 **** 0.06
16165 H 71.28416376976722 59.18330623285767 44.50115299509764 H 0.0 **** 0.06
16166 C 95.47303236851846 62.421299936941864 97.9147198971038 C 0.0 **** -0.24
16167 H 96.49097890621421 62.069802696351815 97.74874337106246 H 0.0 **** 0.06
16168 H 95.47314175963888 63.175893348431714 98.70131349000764 H 0.0 **** 0.06
16169 H 94.84390288357967 61.58279278193578 98.21369574536345 H 0.0 **** 0.06
16170 H 95.08563859429059 62.85612909260493 96.99360624872128 H 0.0 **** 0.06
16171 C 29.8533349302282 93.17348858125766 57.47702963644655 C 0.0 **** -0.24
16172 H 30.03259991894388 93.71724100812092 58.40504586015566 H 0.0 **** 0.06
16173 H 28.89454803906702 92.65968065619528 57.53693592594732 H 0.0 **** 0.06
16174 H 30.649057369942476 92.44291872186207 57.32625079980647 H 0.0 **** 0.06
16175 H 29.839467796206968 93.87324405198427 56.642493473010624 H 0.0 **** 0.06
16176 C 38.36320356486658 41.09021455214605 70.21530740299443 C 0.0 **** -0.24
16177 H 38.33876542469079 41.97271346161608 70.85549035460993 H 0.0 **** 0.06
16178 H 37.64280250164245 40.357492351688336 70.57939558865385 H 0.0 **** 0.06
16179 H 39.36301077706503 40.656685925972795 70.23146794471796 H 0.0 **** 0.06
16180 H 38.10743229390437 41.375129975669836 69.19484233333692 H 0.0 **** 0.06
16181 C 99.03957765339946 55.32263603206613 57.305831199637566 C 0.0 **** -0.24
16182 H 99.96398545463938 55.816896337762415 57.6014265089195 H 0.0 **** 0.06
16183 H 98.19507397252357 55.98558830341241 57.5000852425776 H 0.0 **** 0.06
16184 H 98.91920242337724 54.40321140738362 57.878190212561435 H 0.0 **** 0.06
16185 H 99.07869321179832 55.08608677059104 56.24234676399391 H 0.0 **** 0.06
16186 C 60.76794409527115 51.72041854564655 63.758129135513 C 0.0 **** -0.24
16187 H 59.90117980449364 51.13470702240408 63.45227725474851 H 0.0 **** 0.06
16188 H 60.87217793158577 52.58450522238743 63.10259790847965 H 0.0 **** 0.06
16189 H 61.66386015441441 51.1031119326608 63.69262597396062 H 0.0 **** 0.06
16190 H 60.6332827099979 52.05713909233425 64.78623385340819 H 0.0 **** 0.06
16191 C 37.205240043355865 40.384603328415196 55.66271146934704 C 0.0 **** -0.24
16192 H 37.32030454072229 39.329784188493036 55.415971952610775 H 0.0 **** 0.06
16193 H 36.15832227730041 40.59549451851611 55.88086922058523 H 0.0 **** 0.06
16194 H 37.52960664739121 40.99226954191184 54.81720165611275 H 0.0 **** 0.06
16195 H 37.813363073602886 40.62195287079974 56.535614833051746 H 0.0 **** 0.06
16196 C 19.76273286153048 106.21355511305416 27.84754496042487 C 0.0 **** -0.24
16197 H 18.84827278922711 105.62128713882106 27.79472253434656 H 0.0 **** 0.06
16198 H 20.166223967665474 106.16704450098354 28.859339121714278 H 0.0 **** 0.06
16199 H 19.54003231404414 107.2488668074559 27.59151797198704 H 0.0 **** 0.06
16200 H 20.494520870408564 105.81446789691506 27.14556819010662 H 0.0 **** 0.06
16201 C 29.716674232318184 96.14110312174203 45.48290758740058 C 0.0 **** -0.24
16202 H 29.215338168111003 97.06980539229764 45.75870648696746 H 0.0 **** 0.06
16203 H 29.59372799428084 95.96582385637556 44.41445025159655 H 0.0 **** 0.06
16204 H 29.27736733307765 95.31315160173124 46.03971137286006 H 0.0 **** 0.06
16205 H 30.777785833401538 96.21784456767159 45.72048417802433 H 0.0 **** 0.06
16206 C 91.25543141042965 41.42517351317349 74.80578376959383 C 0.0 **** -0.24
16207 H 91.11075831015614 41.08601738437835 75.83212658681418 H 0.0 **** 0.06
16208 H 91.3830080649069 40.5625551252013 74.1525208999517 H 0.0 **** 0.06
16209 H 92.14379188395384 42.055354002861264 74.75466660391396 H 0.0 **** 0.06
16210 H 90.3851629427956 41.99828228876021 74.48677309704911 H 0.0 **** 0.06
16211 C 40.485961579505556 62.048839298548515 45.46309474524606 C 0.0 **** -0.24
16212 H 40.419123770980434 61.081923060032 44.96362859301312 H 0.0 **** 0.06
16213 H 41.52049016985802 62.3913164439013 45.45394674684926 H 0.0 **** 0.06
16214 H 40.1448294252738 61.949097077264426 46.49368732501953 H 0.0 **** 0.06
16215 H 39.85835338838061 62.77081817531878 44.94089731618962 H 0.0 **** 0.06
16216 C 52.266684372612346 82.38007011362377 68.23472689855731 C 0.0 **** -0.24
16217 H 51.5899225133269 83.12647537470721 67.82010872458505 H 0.0 **** 0.06
16218 H 52.08415079189286 82.27826377195083 69.30449961633744 H 0.0 **** 0.06
16219 H 53.29719937663914 82.69458215157209 68.07122555565857 H 0.0 **** 0.06
16220 H 52.09681622359412 81.42249330714638 67.74397939561145 H 0.0 **** 0.06
16221 C 76.69916352487485 39.36911738619378 31.51757522727212 C 0.0 **** -0.24
16222 H 76.12309710920883 39.81333623771198 30.70521456199856 H 0.0 **** 0.06
16223 H 76.02411995832114 38.85430171130653 32.20108726260355 H 0.0 **** 0.06
16224 H 77.23305480547961 40.15231948146257 32.05490496098264 H 0.0 **** 0.06
16225 H 77.41469502104005 38.65735263470319 31.107529789939576 H 0.0 **** 0.06
16226 C 79.98663834129886 30.712450350147265 26.443101651430936 C 0.0 **** -0.24
16227 H 80.91116832380538 30.13383555200707 26.44307380671171 H 0.0 **** 0.06
16228 H 79.9846173428559 31.393421586120894 27.295049340457012 H 0.0 **** 0.06
16229 H 79.13549523844867 30.036295620675702 26.51613489806067 H 0.0 **** 0.06
16230 H 79.91723817784052 31.28607103864306 25.519599314477205 H 0.0 **** 0.06
16231 C 57.32127068522862 41.15614280981973 61.81170607882862 C 0.0 **** -0.24
16232 H 56.34403399057756 40.68923192868152 61.685740154588416 H 0.0 **** 0.06
16233 H 57.85161697800927 40.66967019774975 62.631313904154894 H 0.0 **** 0.06
16234 H 57.191724049203145 42.214533408149435 62.03970335297774 H 0.0 **** 0.06
16235 H 57.89610164026445 41.04977224999979 60.89220276491014 H 0.0 **** 0.06
16236 C 86.20393076281644 39.372928988482926 1.0483407189938134 C 0.0 **** -0.24
16237 H 85.35138887823334 39.96315758731106 1.383904765829726 H 0.0 **** 0.06
16238 H 87.1054623673616 39.98555167343511 1.083752231349564 H 0.0 **** 0.06
16239 H 86.03231945648622 39.03748818112672 0.025238691098451227 H 0.0 **** 0.06
16240 H 86.32607832473904 38.50723759790202 1.6991180120495528 H 0.0 **** 0.06
16241 C 24.589218282461786 64.47598336568075 31.45862779150113 C 0.0 **** -0.24
16242 H 24.737039506522876 64.6463829584161 32.52471809774937 H 0.0 **** 0.06
16243 H 25.446622929559055 63.93747736605488 31.055142650626664 H 0.0 **** 0.06
16244 H 24.48831794578109 65.4338212539765 30.948590151826636 H 0.0 **** 0.06
16245 H 23.684969003222932 63.88604537732327 31.3070357585313 H 0.0 **** 0.06
16246 C 13.60418956111123 24.83715622103861 62.82691677980333 C 0.0 **** -0.24
16247 H 13.41426386275964 25.464966469339743 61.95634786883579 H 0.0 **** 0.06
16248 H 12.662796094090183 24.62689367799254 63.33549003457014 H 0.0 **** 0.06
16249 H 14.277765185283418 25.356848128818683 63.50892113765842 H 0.0 **** 0.06
16250 H 14.062446044771487 23.900755450657414 62.50672565259484 H 0.0 **** 0.06
16251 C 72.62626244438627 62.62657330301346 5.072093451551398 C 0.0 **** -0.24
16252 H 71.99121356476576 62.589508081284606 4.186660889246934 H 0.0 **** 0.06
16253 H 72.96423412950703 61.619615002383654 5.318499346577562 H 0.0 **** 0.06
16254 H 72.05836623406033 63.034774076444194 5.908245195244184 H 0.0 **** 0.06
16255 H 73.48904255497276 63.261662894226646 4.874160775958478 H 0.0 **** 0.06
16256 C 2.8436368680273745 89.02944204929516 17.615313561973494 C 0.0 **** -0.24
16257 H 2.9362297224816984 90.02153605137015 17.1750276367855 H 0.0 **** 0.06
16258 H 2.904127262808288 88.27618512608207 16.829539010850766 H 0.0 **** 0.06
16259 H 1.8847219159846418 88.94618638163386 18.125868427174282 H 0.0 **** 0.06
16260 H 3.6516966394841006 88.87373416251944 18.330677948927587 H 0.0 **** 0.06
16261 C 59.584591414240975 46.47739134699936 13.269039491857917 C 0.0 **** -0.24
16262 H 58.95552686940809 46.931276527310985 12.502591973618355 H 0.0 **** 0.06
16263 H 60.42902412733878 47.13383986908962 13.481125507875294 H 0.0 **** 0.06
16264 H 59.95115146132281 45.51476244037825 12.9128288543498 H 0.0 **** 0.06
16265 H 59.000734732693445 46.330921294276166 14.17795127136307 H 0.0 **** 0.06
16266 C 103.77743019158652 42.0243408015165 58.28424515059305 C 0.0 **** -0.24
16267 H 104.78954414387903 42.29062361417735 58.58954424379493 H 0.0 **** 0.06
16268 H 103.13561944954793 42.903138035014905 58.34972124575023 H 0.0 **** 0.06
16269 H 103.39379291260147 41.24435721153003 58.94061674144609 H 0.0 **** 0.06
16270 H 103.79196346504176 41.660167037789165 57.2562553501329 H 0.0 **** 0.06
16271 C 26.106494974930786 27.829946626434094 5.014810870164865 C 0.0 **** -0.24
16272 H 25.15171885512668 28.35122765245646 5.082437426501883 H 0.0 **** 0.06
16273 H 26.509686763936216 27.679724508772324 6.016408800638601 H 0.0 **** 0.06
16274 H 26.804924843861148 28.426752266704057 4.426661623799106 H 0.0 **** 0.06
16275 H 25.960111105153374 26.86355569725228 4.532118367128419 H 0.0 **** 0.06
16276 C 5.659964270050395 3.1319828116800323 95.61152524664948 C 0.0 **** -0.24
16277 H 6.124808751890754 2.969342593406637 94.63903335351705 H 0.0 **** 0.06
16278 H 5.445264976394256 4.1937931348390975 95.73829995849138 H 0.0 **** 0.06
16279 H 6.338807426321381 2.8020548095361733 96.39845550302897 H 0.0 **** 0.06
16280 H 4.731722502755133 2.5633640017275923 95.6700794169862 H 0.0 **** 0.06
16281 C 40.98303768281352 45.047895422166846 82.87484653216569 C 0.0 **** -0.24
16282 H 41.55994693573575 44.19679940369903 82.51146650987484 H 0.0 **** 0.06
16283 H 41.62378512399465 45.92772528751188 82.92208820962246 H 0.0 **** 0.06
16284 H 40.59528348500646 44.82605239068504 83.86952693212825 H 0.0 **** 0.06
16285 H 40.152030391050005 45.239483878532624 82.19509326159785 H 0.0 **** 0.06
16286 C 33.97094837288435 3.611165437596995 94.09960297592107 C 0.0 **** -0.24
16287 H 32.9781481405401 3.9297153478145503 94.41601618847695 H 0.0 **** 0.06
16288 H 33.87828870812609 2.8291264605532547 93.34529403355087 H 0.0 **** 0.06
16289 H 34.52055892082058 3.226008358415598 94.95899812224394 H 0.0 **** 0.06
16290 H 34.50647039402767 4.462056739799323 93.67718030088176 H 0.0 **** 0.06
16291 C 102.79866999853526 22.080769982809073 37.21614195539715 C 0.0 **** -0.24
16292 H 103.37736617800209 21.421653860603385 36.56896394328635 H 0.0 **** 0.06
16293 H 103.28523901661431 22.152112333423702 38.18875058855963 H 0.0 **** 0.06
16294 H 101.79472738830098 21.67715919428022 37.34017092678238 H 0.0 **** 0.06
16295 H 102.73925878763619 23.07133315221742 36.76586249239227 H 0.0 **** 0.06
16296 C 71.80077196889363 26.07467499091362 15.72702093299436 C 0.0 **** -0.24
16297 H 70.78950092763125 26.36102695645741 15.436910309722073 H 0.0 **** 0.06
16298 H 72.15494267186966 26.738780274638117 16.515711627195255 H 0.0 **** 0.06
16299 H 72.46119441685835 26.15051301287542 14.863614042425763 H 0.0 **** 0.06
16300 H 71.79549434578405 25.047296711983307 16.091790378571957 H 0.0 **** 0.06
16301 C 13.815563555805824 40.15173014234239 39.72116455069815 C 0.0 **** -0.24
16302 H 14.465198885824321 39.355391733869624 40.08561458293403 H 0.0 **** 0.06
16303 H 12.780010194523442 39.916803960349995 39.96782959916716 H 0.0 **** 0.06
16304 H 13.92163503273369 40.241901085856114 38.640556988448736 H 0.0 **** 0.06
16305 H 14.096527734042184 41.09359334951736 40.19414405655431 H 0.0 **** 0.06
16306 C 36.24043936426682 70.74905375626983 28.089666843371926 C 0.0 **** -0.24
16307 H 36.55680787690085 71.69878594346949 27.657582968268752 H 0.0 **** 0.06
16308 H 35.853200643733175 70.1025580478501 27.30120489264603 H 0.0 **** 0.06
16309 H 35.45984651208295 70.92900174891099 28.828959906788917 H 0.0 **** 0.06
16310 H 37.092014412695946 70.26758395482216 28.570701652494755 H 0.0 **** 0.06
16311 C 43.6357339414902 104.9771659276773 7.575911766118196 C 0.0 **** -0.24
16312 H 43.46769117616566 104.61877908654725 6.560828931579692 H 0.0 **** 0.06
16313 H 43.174636853847744 104.28953271467904 8.28595036830177 H 0.0 **** 0.06
16314 H 43.19501320509576 105.96764628140002 7.6896729828609125 H 0.0 **** 0.06
16315 H 44.707313700294804 105.03298852539433 7.76859644352146 H 0.0 **** 0.06
16316 C 22.37091579722417 17.778904624950666 55.671451714056474 C 0.0 **** -0.24
16317 H 21.948555151985317 16.961273092082266 55.08850591370825 H 0.0 **** 0.06
16318 H 23.446631782352625 17.633581970840655 55.775630408778056 H 0.0 **** 0.06
16319 H 21.909407495242675 17.797056587894417 56.659134524740665 H 0.0 **** 0.06
16320 H 22.17865082483084 18.724138983172924 55.16381611950396 H 0.0 **** 0.06
16321 C 88.13319002547492 40.44780253278222 4.923959540319487 C 0.0 **** -0.24
16322 H 88.14114046773742 39.847038780141986 4.014893878216839 H 0.0 **** 0.06
16323 H 87.22033691309916 40.24624042697971 5.4849342669004955 H 0.0 **** 0.06
16324 H 88.1731269602366 41.50497298994071 4.660916983829509 H 0.0 **** 0.06
16325 H 88.99911874085998 40.19269159572275 5.535050849519109 H 0.0 **** 0.06
16326 C 55.64739022143541 47.9542988301539 21.803478041687413 C 0.0 **** -0.24
16327 H 55.19049788652767 47.68103126792053 20.85225254368106 H 0.0 **** 0.06
16328 H 55.87507744844353 49.01995267081915 21.803788206463594 H 0.0 **** 0.06
16329 H 56.56750650338636 47.3861955491744 21.940472194951724 H 0.0 **** 0.06
16330 H 54.95661246224305 47.729539947229796 22.616529865833286 H 0.0 **** 0.06
16331 C 56.34506657551543 48.524950970632545 34.82914381164104 C 0.0 **** -0.24
16332 H 57.39556949567316 48.79712001408828 34.72046356710331 H 0.0 **** 0.06
16333 H 56.23314872256316 47.449625985641006 34.685511149862286 H 0.0 **** 0.06
16334 H 55.75408353630064 49.05517465510857 34.08363827150712 H 0.0 **** 0.06
16335 H 56.00091753261603 48.79645071581305 35.827121783484316 H 0.0 **** 0.06
16336 C 79.44975674220899 22.123332118969472 99.0096113111352 C 0.0 **** -0.24
16337 H 78.63041404086476 21.858135455645424 98.34124615135241 H 0.0 **** 0.06
16338 H 79.33553719731611 23.158390964736526 99.33262496031973 H 0.0 **** 0.06
16339 H 80.39822199448315 22.008936720446712 98.48379754785675 H 0.0 **** 0.06
16340 H 79.43592042708207 21.46729094033182 99.88004697326168 H 0.0 **** 0.06
16341 C 51.20440694486308 1.4267413534345224 99.17232718928454 C 0.0 **** -0.24
16342 H 51.18107355887679 0.4755931132715432 98.63999523577479 H 0.0 **** 0.06
16343 H 52.23424786928126 1.6738198840535574 99.42951304001224 H 0.0 **** 0.06
16344 H 50.61036375194712 1.3478894344394234 100.08303174336754 H 0.0 **** 0.06
16345 H 50.79094068881028 2.209849009677498 98.53536812843271 H 0.0 **** 0.06
16346 C 34.21247898752867 74.87999557977338 44.54818375352647 C 0.0 **** -0.24
16347 H 33.758541876486134 75.32545734992351 43.66261182147238 H 0.0 **** 0.06
16348 H 33.496439098610324 74.21010159639451 45.02546531558502 H 0.0 **** 0.06
16349 H 34.49506118354256 75.66754394655908 45.24618844017755 H 0.0 **** 0.06
16350 H 35.09889491704081 74.31718572173344 44.25749574287724 H 0.0 **** 0.06
16351 C 28.656189021289833 26.808528448260063 88.68330486528974 C 0.0 **** -0.24
16352 H 28.50462546605513 25.88983278122356 89.25164591961666 H 0.0 **** 0.06
16353 H 28.803833317062526 26.564987253402123 87.63094201079045 H 0.0 **** 0.06
16354 H 29.534479927782172 27.32928167351696 89.06382008906975 H 0.0 **** 0.06
16355 H 27.779681324497858 27.448379412856482 88.7892139969981 H 0.0 **** 0.06
16356 C 5.632159152891646 0.9850485121642691 47.3906846150561 C 0.0 **** -0.24
16357 H 5.475593433748884 -0.08935514415566104 47.49389183792226 H 0.0 **** 0.06
16358 H 5.392407510453154 1.4785522089075869 48.33218922408685 H 0.0 **** 0.06
16359 H 4.9858773347361875 1.3715740689494993 46.60250029485786 H 0.0 **** 0.06
16360 H 6.673689582994243 1.1767890401142154 47.13319747219225 H 0.0 **** 0.06
16361 C 45.289581171541386 32.84000029213493 20.25112863460953 C 0.0 **** -0.24
16362 H 45.47308309002224 32.29441162885456 21.177049144024636 H 0.0 **** 0.06
16363 H 45.971284914133776 32.48303762871353 19.4786725484401 H 0.0 **** 0.06
16364 H 45.455020576329616 33.904185553364016 20.41770959901754 H 0.0 **** 0.06
16365 H 44.26078663359155 32.676652822124026 19.932363758954693 H 0.0 **** 0.06
16366 C 40.96882398401803 72.57616061104099 34.14087496300721 C 0.0 **** -0.24
16367 H 40.297040051397936 73.37442180014898 34.45750907349242 H 0.0 **** 0.06
16368 H 41.8159532089772 73.00577592603082 33.60577265093954 H 0.0 **** 0.06
16369 H 40.43309709921271 71.89045413431205 33.483513497727415 H 0.0 **** 0.06
16370 H 41.32722788847982 72.03482323585837 35.016075606233755 H 0.0 **** 0.06
16371 C 77.30902644591472 44.9457541110271 79.018396740553 C 0.0 **** -0.24
16372 H 78.05738135285898 44.31145449584585 79.49229713700424 H 0.0 **** 0.06
16373 H 76.43032323315472 45.01205073409676 79.66045060015874 H 0.0 **** 0.06
16374 H 77.02648187372907 44.517403365085215 78.05725322116037 H 0.0 **** 0.06
16375 H 77.72284933600952 45.94203849793348 78.86394699415418 H 0.0 **** 0.06
16376 C 42.56913269980943 14.70885513595088 105.62780939093332 C 0.0 **** -0.24
16377 H 43.568995837028055 14.304068590470798 105.78395759030947 H 0.0 **** 0.06
16378 H 41.90436007246455 13.913707024570808 105.28985590941372 H 0.0 **** 0.06
16379 H 42.609467533883645 15.494762960243722 104.87343235514464 H 0.0 **** 0.06
16380 H 42.1936899481355 15.12196496767918 106.5643902718848 H 0.0 **** 0.06
16381 C 95.62775623579148 49.04025977976937 80.99361579887838 C 0.0 **** -0.24
16382 H 96.04340015184462 48.54910979055836 80.11396728095215 H 0.0 **** 0.06
16383 H 94.5397679159073 48.98449009606094 80.95994297592466 H 0.0 **** 0.06
16384 H 95.93903888099356 50.08532325251133 81.00554099869592 H 0.0 **** 0.06
16385 H 95.99043217137981 48.54288657034243 81.89260340561091 H 0.0 **** 0.06
16386 C 95.97501107864892 37.60903999678943 59.96968482106325 C 0.0 **** -0.24
16387 H 94.94599789951039 37.58805937087081 59.611014511634366 H 0.0 **** 0.06
16388 H 96.60832872790432 37.03902892105936 59.28891254032507 H 0.0 **** 0.06
16389 H 96.022155761735 37.168657784902464 60.96524323543561 H 0.0 **** 0.06
16390 H 96.32382127928643 38.640791687044704 60.01268014007354 H 0.0 **** 0.06
16391 C 97.39857928757817 90.42719048746594 104.7323445923787 C 0.0 **** -0.24
16392 H 97.45961021860128 91.41071741004376 104.26751486021959 H 0.0 **** 0.06
16393 H 96.62137847478928 90.43406068667556 105.49727625937373 H 0.0 **** 0.06
16394 H 98.3571883963008 90.18191963778602 105.19030914047511 H 0.0 **** 0.06
16395 H 97.15614006062098 89.68206421535834 103.97427810944629 H 0.0 **** 0.06
16396 C 95.99235098806065 37.82974898793787 36.856213402770344 C 0.0 **** -0.24
16397 H 96.77183298110208 38.588656748249555 36.79265621014477 H 0.0 **** 0.06
16398 H 96.22697282878795 37.01127506833381 36.1744569819032 H 0.0 **** 0.06
16399 H 95.03412141006845 38.26905279646708 36.5796687825639 H 0.0 **** 0.06
16400 H 95.9380356869624 37.449335012326195 37.87630740314208 H 0.0 **** 0.06
16401 C 21.139183636971836 28.39176041711994 9.396758618769297 C 0.0 **** -0.24
16402 H 20.052739846543886 28.445640056502725 9.320216937958165 H 0.0 **** 0.06
16403 H 21.50291197936508 27.549257018237427 8.80790340906664 H 0.0 **** 0.06
16404 H 21.423311914168636 28.25555897011543 10.440312164852983 H 0.0 **** 0.06
16405 H 21.575773004010372 29.316491358577196 9.018593116067962 H 0.0 **** 0.06
16406 C 106.3000787130797 95.71449729793007 31.05163788359158 C 0.0 **** -0.24
16407 H 106.84943617989671 96.59204829175162 30.710616860852213 H 0.0 **** 0.06
16408 H 107.00215434432096 94.9146965403751 31.28467266206235 H 0.0 **** 0.06
16409 H 105.61972636501605 95.38440967616825 30.266803163469945 H 0.0 **** 0.06
16410 H 105.7281634975098 95.96830620405932 31.94483091299088 H 0.0 **** 0.06
16411 C 44.37228352452502 26.919691612007313 67.23446680937077 C 0.0 **** -0.24
16412 H 45.35395955118736 26.58211996119821 67.56624572504886 H 0.0 **** 0.06
16413 H 43.61245710636297 26.21425773733666 67.57088258207881 H 0.0 **** 0.06
16414 H 44.35782836566892 26.979104216806423 66.14577220612932 H 0.0 **** 0.06
16415 H 44.165196568987426 27.904218020407978 67.65515137010127 H 0.0 **** 0.06
16416 C 35.24629285948135 82.96314755520721 82.56214025499293 C 0.0 **** -0.24
16417 H 34.85754182562311 83.6507488261068 83.31320471922581 H 0.0 **** 0.06
16418 H 36.33642336937755 82.96016633178617 82.60254297184008 H 0.0 **** 0.06
16419 H 34.919768637912256 83.2833116944812 81.5727815955228 H 0.0 **** 0.06
16420 H 34.87160293180663 81.95911201365345 82.76122013125968 H 0.0 **** 0.06
16421 C 18.295272721199694 61.93518105991832 58.109465221946486 C 0.0 **** -0.24
16422 H 18.627199464447784 60.90767426810078 57.95860049799823 H 0.0 **** 0.06
16423 H 18.654064968680586 62.29409664714002 59.07440742622691 H 0.0 **** 0.06
16424 H 17.20610295010013 61.97167474573398 58.09040944826437 H 0.0 **** 0.06
16425 H 18.694325853163548 62.56625645015984 57.315213267142504 H 0.0 **** 0.06
16426 C 75.97107702599968 22.211886583465514 67.90892097252923 C 0.0 **** -0.24
16427 H 75.40394629259202 21.280887260069733 67.91472730036746 H 0.0 **** 0.06
16428 H 75.83900706138543 22.7119571700361 66.94862325149693 H 0.0 **** 0.06
16429 H 77.02801281886923 21.993255519022455 68.06378843603221 H 0.0 **** 0.06
16430 H 75.61270739689607 22.859780476838182 68.7094517105536 H 0.0 **** 0.06
16431 C 28.943438264712107 69.10313722566583 34.85383362045441 C 0.0 **** -0.24
16432 H 28.753179276191815 69.11379542448945 33.78137683696953 H 0.0 **** 0.06
16433 H 30.016404181016128 69.03325526328432 35.032630603906995 H 0.0 **** 0.06
16434 H 28.44310522353289 68.24432086442468 35.30282479721326 H 0.0 **** 0.06
16435 H 28.55883170081436 70.02068102596967 35.29937922171325 H 0.0 **** 0.06
16436 C 39.64536430929302 102.12021744303873 19.607416066698462 C 0.0 **** -0.24
16437 H 39.57895827919529 102.72226278152945 20.5133737560936 H 0.0 **** 0.06
16438 H 40.409480582826696 102.53490443685045 18.95094316948287 H 0.0 **** 0.06
16439 H 38.68276163515853 102.12689848403053 19.096300470361484 H 0.0 **** 0.06
16440 H 39.90913273295967 101.09603064639262 19.8710812505644 H 0.0 **** 0.06
16441 C 25.080935435010048 65.55768741016243 15.468781774639112 C 0.0 **** -0.24
16442 H 24.415791335490297 66.41907302307246 15.526469232963876 H 0.0 **** 0.06
16443 H 24.904685193047015 65.02527206319454 14.534192317977173 H 0.0 **** 0.06
16444 H 24.88733502020949 64.89215509333084 16.309511387669815 H 0.0 **** 0.06
16445 H 26.116862466654 65.8959040379113 15.503773707359258 H 0.0 **** 0.06
16446 C 87.4174839628547 79.7740782387734 13.39065146026623 C 0.0 **** -0.24
16447 H 87.32686239162445 79.27189807240565 14.353835513001108 H 0.0 **** 0.06
16448 H 88.43775510826322 80.13782629436135 13.26538818349793 H 0.0 **** 0.06
16449 H 86.72443345614442 80.61488095023135 13.352948279197076 H 0.0 **** 0.06
16450 H 87.1809484652241 79.0713655705971 12.591371412568257 H 0.0 **** 0.06
16451 C 20.442534578090488 16.66288253208512 49.43306772367999 C 0.0 **** -0.24
16452 H 19.5461642075918 16.430397627324183 50.00881738917432 H 0.0 **** 0.06
16453 H 21.320585655095556 16.300226419736617 49.967990692124275 H 0.0 **** 0.06
16454 H 20.518640535013503 17.741353235508782 49.297817991192005 H 0.0 **** 0.06
16455 H 20.383716125340243 16.177908407572076 48.45875453572765 H 0.0 **** 0.06
16456 C 32.385730936753845 97.02759814962644 35.740587951979734 C 0.0 **** -0.24
16457 H 32.74654568717162 97.58195659127308 36.60637724203828 H 0.0 **** 0.06
16458 H 31.306084157673638 96.89571935954821 35.81843761400373 H 0.0 **** 0.06
16459 H 32.869986698137495 96.05176242259022 35.70536446632292 H 0.0 **** 0.06
16460 H 32.61961255200711 97.58230681362159 34.831342967028505 H 0.0 **** 0.06
16461 C 70.80902798963228 11.662398999396132 56.73931367165161 C 0.0 **** -0.24
16462 H 70.47271334460999 11.352844282229725 55.74946314099024 H 0.0 **** 0.06
16463 H 71.17201186515899 10.792897923381517 57.28737780567653 H 0.0 **** 0.06
16464 H 69.97634366804425 12.111798476799748 57.28091099698093 H 0.0 **** 0.06
16465 H 71.61350091068607 12.39063359581398 56.638237554454925 H 0.0 **** 0.06
16466 C 13.645869006627919 49.9557409743749 91.68389106162199 C 0.0 **** -0.24
16467 H 12.707582481402994 50.24819094856527 92.15595583094135 H 0.0 **** 0.06
16468 H 13.529766344816835 48.97527874293341 91.2209129417973 H 0.0 **** 0.06
16469 H 14.432979470027533 49.91161619130232 92.43662928258318 H 0.0 **** 0.06
16470 H 13.912635754014815 50.68849464778185 90.92266426307594 H 0.0 **** 0.06
16471 C 24.42644106373541 88.75807689759668 95.8627442000475 C 0.0 **** -0.24
16472 H 25.157966159027694 89.05612880015545 96.61336579120174 H 0.0 **** 0.06
16473 H 24.82317464667915 87.9283987146475 95.27827841819925 H 0.0 **** 0.06
16474 H 24.21921897204237 89.6004689385932 95.20340185786895 H 0.0 **** 0.06
16475 H 23.505922432703414 88.44792502288257 96.35652647803983 H 0.0 **** 0.06
16476 C 15.716675236447188 27.990971441709917 73.40003500364887 C 0.0 **** -0.24
16477 H 15.243777509694056 27.661464559459773 74.32535261207113 H 0.0 **** 0.06
16478 H 15.724186083575802 29.081013499437063 73.36502543394178 H 0.0 **** 0.06
16479 H 15.157373346972435 27.60354026490114 72.5483295398171 H 0.0 **** 0.06
16480 H 16.73987326950146 27.618207201636892 73.36272179075223 H 0.0 **** 0.06
16481 C 67.3200128587647 42.75023712468544 42.221736328764564 C 0.0 **** -0.24
16482 H 66.83997865392422 43.41875202953477 42.934617506566724 H 0.0 **** 0.06
16483 H 68.33938356165316 43.08935990762825 42.034280017099206 H 0.0 **** 0.06
16484 H 66.75877758311933 42.75236296012935 41.287376574944574 H 0.0 **** 0.06
16485 H 67.34249393803987 41.73959235565127 42.62973077894614 H 0.0 **** 0.06
16486 C 63.14734459903869 21.33876390634643 93.93600314176027 C 0.0 **** -0.24
16487 H 62.6773192004471 22.304000537693156 93.74688125012744 H 0.0 **** 0.06
16488 H 63.61476029683584 21.34966285646476 94.92031023604974 H 0.0 **** 0.06
16489 H 63.904120933482176 21.148444309991817 93.17584087146584 H 0.0 **** 0.06
16490 H 62.39113830365241 20.55370525315014 93.9014964056859 H 0.0 **** 0.06
16491 C 5.308382875791835 87.0634218386025 98.19829452574578 C 0.0 **** -0.24
16492 H 4.9929288053235155 87.97809738059698 98.699742495226 H 0.0 **** 0.06
16493 H 6.229559113965479 87.25090428078917 97.64616736610016 H 0.0 **** 0.06
16494 H 4.528991532442717 86.74093352085879 97.50690231491667 H 0.0 **** 0.06
16495 H 5.48110128991965 86.28402970400057 98.94050403781024 H 0.0 **** 0.06
16496 C 21.155799152007262 103.85647591213456 77.33194031214013 C 0.0 **** -0.24
16497 H 21.562122751179118 104.50442423983041 78.1084258520934 H 0.0 **** 0.06
16498 H 21.25323297641205 104.3457053965872 76.36270098354501 H 0.0 **** 0.06
16499 H 20.103578919440622 103.66062477134827 77.53695395783105 H 0.0 **** 0.06
16500 H 21.70494506377139 102.91510830352921 77.32091810885447 H 0.0 **** 0.06
16501 C 94.93532714955748 47.03355744171118 77.56960495549282 C 0.0 **** -0.24
16502 H 94.10203448489617 46.99890176803608 76.86774241158457 H 0.0 **** 0.06
16503 H 94.56174608565813 47.26911887065741 78.56625319885688 H 0.0 **** 0.06
16504 H 95.64290072335035 47.801435513764375 77.25558481540017 H 0.0 **** 0.06
16505 H 95.4353134869556 46.06501544398208 77.58762664556161 H 0.0 **** 0.06
16506 C 47.42677058739889 74.46577806232278 103.6082389780142 C 0.0 **** -0.24
16507 H 46.739232316023276 73.81169875651997 104.1453517562775 H 0.0 **** 0.06
16508 H 47.15175327735852 75.50564858116064 103.78682096263078 H 0.0 **** 0.06
16509 H 47.36934904453574 74.25307679253407 102.54075518816495 H 0.0 **** 0.06
16510 H 48.44378312754537 74.29266869945545 103.95956835486632 H 0.0 **** 0.06
16511 C 25.293946512052997 0.9581472747889279 34.89097218795115 C 0.0 **** -0.24
16512 H 25.733915055110117 0.653174001346656 35.840402904823264 H 0.0 **** 0.06
16513 H 26.084073408349013 1.263573783047832 34.205448434425136 H 0.0 **** 0.06
16514 H 24.613336079461234 1.7932009031945313 35.05761730134722 H 0.0 **** 0.06
16515 H 24.742283257984283 0.12099417355028663 34.4616633141255 H 0.0 **** 0.06
16516 C 100.68415102534014 67.10042962462984 59.03220296583974 C 0.0 **** -0.24
16517 H 100.44067290036821 66.05274458721226 58.852152335587085 H 0.0 **** 0.06
16518 H 100.63612777675621 67.30567459850778 60.10140638600711 H 0.0 **** 0.06
16519 H 99.96869040279581 67.73376160673428 58.50751028035934 H 0.0 **** 0.06
16520 H 101.6896486764496 67.30763546916359 58.6656843063298 H 0.0 **** 0.06
16521 C 95.70432689751797 65.24545202316966 35.430591699223214 C 0.0 **** -0.24
16522 H 94.84789886177725 64.5768366116472 35.343412808728914 H 0.0 **** 0.06
16523 H 96.01120738422308 65.30859369282467 36.47461382812878 H 0.0 **** 0.06
16524 H 95.42774324080673 66.2378985824603 35.07219234407262 H 0.0 **** 0.06
16525 H 96.52836040098703 64.85918076971606 34.83181966448788 H 0.0 **** 0.06
16526 C 84.14909126893308 1.5089765080721804 2.929093822322244 C 0.0 **** -0.24
16527 H 85.0351463799024 1.0997603204711481 2.445155709530354 H 0.0 **** 0.06
16528 H 83.95069533808811 0.9586401633150672 3.8483291725513027 H 0.0 **** 0.06
16529 H 83.29420916028923 1.4180602057536476 2.258483245284822 H 0.0 **** 0.06
16530 H 84.31706274398643 2.560060559640874 3.16337697826998 H 0.0 **** 0.06
16531 C 14.214206142084365 33.46794208539103 3.2662464223626415 C 0.0 **** -0.24
16532 H 13.714450903245762 32.75388239536596 3.9195817826952606 H 0.0 **** 0.06
16533 H 14.501036154381751 32.97107508529473 2.338476236075337 H 0.0 **** 0.06
16534 H 15.105642959855516 33.85278974120945 3.7627788429392837 H 0.0 **** 0.06
16535 H 13.538385740165936 34.292762429023355 3.042367325435279 H 0.0 **** 0.06
16536 C 11.961927732976719 57.06755830149283 25.591958406385487 C 0.0 **** -0.24
16537 H 11.236267456278313 57.867923029049145 25.730991132856246 H 0.0 **** 0.06
16538 H 12.118802868525478 56.90188948815034 24.524960348432902 H 0.0 **** 0.06
16539 H 11.58578337426782 56.15225492561177 26.04999650855811 H 0.0 **** 0.06
16540 H 12.90531980373126 57.3461274601665 26.05915026052359 H 0.0 **** 0.06
16541 C 45.51240036851386 44.647551396358324 101.77600837751525 C 0.0 **** -0.24
16542 H 44.74958655441484 43.99277554624811 102.19811311570074 H 0.0 **** 0.06
16543 H 45.95363259428295 45.24979240659377 102.57003330435153 H 0.0 **** 0.06
16544 H 45.05845304866862 45.30261487901822 101.03284262028988 H 0.0 **** 0.06
16545 H 46.28770257247796 44.04388907977463 101.30385901315836 H 0.0 **** 0.06
16546 C 46.36697028684944 92.75778821144904 53.49959783170298 C 0.0 **** -0.24
16547 H 46.148211975343656 93.33702479808245 52.60270459913524 H 0.0 **** 0.06
16548 H 46.70869144461841 91.76228414440271 53.215559053600884 H 0.0 **** 0.06
16549 H 45.464615588935374 92.67390777029921 54.10590205734639 H 0.0 **** 0.06
16550 H 47.145086033643 93.25968554650765 54.07478359437658 H 0.0 **** 0.06
16551 C 24.594675183902723 56.1865534027181 100.49996451624364 C 0.0 **** -0.24
16552 H 23.554275116948673 55.87995072962478 100.39103693469272 H 0.0 **** 0.06
16553 H 24.69931620078114 57.227478897073816 100.19513005675145 H 0.0 **** 0.06
16554 H 25.226061616519416 55.55749559381162 99.87329625811293 H 0.0 **** 0.06
16555 H 24.8958003297559 56.07965238158799 101.54258073223374 H 0.0 **** 0.06
16556 C 77.25286041715094 32.790959987685994 68.32004184205266 C 0.0 **** -0.24
16557 H 77.06229994858622 33.279814257272534 67.36499478239713 H 0.0 **** 0.06
16558 H 77.07522064886307 33.496990507721975 69.13139178810292 H 0.0 **** 0.06
16559 H 78.28838274827291 32.450885176938684 68.35382612812688 H 0.0 **** 0.06
16560 H 76.58582698582549 31.9355875406481 68.42917984746282 H 0.0 **** 0.06
16561 C 106.51116796633 63.66851558383931 86.62891206742397 C 0.0 **** -0.24
16562 H 107.33714226711265 63.62255539104794 85.91893401369936 H 0.0 **** 0.06
16563 H 106.57039726268295 64.59874085489133 87.1950433237782 H 0.0 **** 0.06
16564 H 106.57254299827721 62.82243373129346 87.31222403088807 H 0.0 **** 0.06
16565 H 105.566315091517 63.63103663518102 86.08821158911559 H 0.0 **** 0.06
16566 C 21.304341007606098 35.01824478254301 11.838426863250476 C 0.0 **** -0.24
16567 H 21.568196354049178 34.71687132810372 10.825264462140751 H 0.0 **** 0.06
16568 H 21.214901268244233 36.103769040337966 11.883663354400596 H 0.0 **** 0.06
16569 H 22.080218535327674 34.688402359211466 12.52895327279532 H 0.0 **** 0.06
16570 H 20.353205706545424 34.562971434099666 12.116426100307052 H 0.0 **** 0.06
16571 C 61.66878176672256 48.80307445528538 48.27583943990345 C 0.0 **** -0.24
16572 H 62.704014592012314 48.4707980415038 48.194752347252006 H 0.0 **** 0.06
16573 H 61.60651249042422 49.86073555580231 48.0202396950167 H 0.0 **** 0.06
16574 H 61.319236909150234 48.65416508162551 49.29749353970419 H 0.0 **** 0.06
16575 H 61.04802148306692 48.225633164445156 47.59088329096949 H 0.0 **** 0.06
16576 C 63.18634561112731 83.3690887301801 11.944144925015763 C 0.0 **** -0.24
16577 H 62.179540092674756 82.95583724893024 11.896800412921507 H 0.0 **** 0.06
16578 H 63.186084893920054 84.37618395930645 11.527267442628414 H 0.0 **** 0.06
16579 H 63.86521902255066 82.73786419005566 11.371199766731536 H 0.0 **** 0.06
16580 H 63.51492089257772 83.40701373587697 12.983446975541 H 0.0 **** 0.06
16581 C 59.79500599441192 20.19151864782188 57.39701670373822 C 0.0 **** -0.24
16582 H 59.77763654308827 21.28100441119406 57.41398008367045 H 0.0 **** 0.06
16583 H 60.439723451627344 19.82600915192168 58.19641830816752 H 0.0 **** 0.06
16584 H 60.17925184041124 19.849558280806093 56.43540867635329 H 0.0 **** 0.06
16585 H 58.78412405391076 19.80967255454317 57.54068987866549 H 0.0 **** 0.06
16586 C 83.67074412741646 49.41609943428074 97.77787658369576 C 0.0 **** -0.24
16587 H 82.75604641924244 49.22794587443379 98.34046530542844 H 0.0 **** 0.06
16588 H 84.01836213784141 50.42929450531536 97.97726096266177 H 0.0 **** 0.06
16589 H 83.47162715451982 49.30197117095083 96.71207364637954 H 0.0 **** 0.06
16590 H 84.43671260677111 48.70169428119907 98.0830312491002 H 0.0 **** 0.06
16591 C 48.572426999263584 85.37356958647685 84.50477628235615 C 0.0 **** -0.24
16592 H 48.229891415017185 85.1843651786224 85.5213069987534 H 0.0 **** 0.06
16593 H 48.90420407215886 86.40776842644685 84.41914107502839 H 0.0 **** 0.06
16594 H 47.75405866916248 85.19494468209943 83.80677759979642 H 0.0 **** 0.06
16595 H 49.40168623270211 84.70512168382632 84.27058984103047 H 0.0 **** 0.06
16596 C 80.86600554169524 78.22131734686636 18.598796882634428 C 0.0 **** -0.24
16597 H 79.90754889904366 77.85334878512116 18.964192125791467 H 0.0 **** 0.06
16598 H 80.70508800683285 79.10818621058654 17.98658627119923 H 0.0 **** 0.06
16599 H 81.3468821227367 77.4484702624447 17.999628476284595 H 0.0 **** 0.06
16600 H 81.50424368601733 78.47387957001675 19.44490624480971 H 0.0 **** 0.06
16601 C 95.64788344189697 74.86242264836035 74.08876048411122 C 0.0 **** -0.24
16602 H 95.2016721285325 73.89337894569822 74.30859314446938 H 0.0 **** 0.06
16603 H 94.88148750136378 75.63596593766142 74.14437327433293 H 0.0 **** 0.06
16604 H 96.07655260852232 74.84702915946126 73.08650177877304 H 0.0 **** 0.06
16605 H 96.43177067162486 75.07453458606307 74.81629060375687 H 0.0 **** 0.06
16606 C 39.37990650822161 92.25432025788821 71.77035192903273 C 0.0 **** -0.24
16607 H 38.69140076479829 92.91161688283033 71.23821120671795 H 0.0 **** 0.06
16608 H 39.81522784390347 91.54105889854826 71.06948222789882 H 0.0 **** 0.06
16609 H 38.8385594740632 91.71571234795087 72.5482205691749 H 0.0 **** 0.06
16610 H 40.171930172726434 92.84836078870379 72.22393540486868 H 0.0 **** 0.06
16611 C 22.528749683729387 90.86398324162778 98.34959453089192 C 0.0 **** -0.24
16612 H 22.38956724578128 91.14668725631395 99.39323547186956 H 0.0 **** 0.06
16613 H 22.290767224081407 91.71350779156758 97.70911259080299 H 0.0 **** 0.06
16614 H 21.86940103675596 90.03024365666897 98.10800525290011 H 0.0 **** 0.06
16615 H 23.564914421637724 90.56653131777053 98.18936756162259 H 0.0 **** 0.06
16616 C 10.761999600571599 21.153800685693426 4.281734654423161 C 0.0 **** -0.24
16617 H 10.127847702202544 20.286867528872307 4.463564019322661 H 0.0 **** 0.06
16618 H 11.806406475243492 20.88013372090367 4.438873078376062 H 0.0 **** 0.06
16619 H 10.489056399348328 21.95515919696365 4.969585896583226 H 0.0 **** 0.06
16620 H 10.625474381363048 21.49440383148493 3.2556420456177477 H 0.0 **** 0.06
16621 C 85.81158445765561 59.65260408738612 95.68863957637868 C 0.0 **** -0.24
16622 H 86.17020923570908 60.458293687948355 96.32839436859587 H 0.0 **** 0.06
16623 H 86.03403902176589 58.69240457011864 96.15449747229022 H 0.0 **** 0.06
16624 H 86.30701510170051 59.709705036210835 94.71881860353332 H 0.0 **** 0.06
16625 H 84.73407572419379 59.74948944449949 95.551994381286 H 0.0 **** 0.06
16626 C 103.39952754346228 13.570480196171687 35.87287251007517 C 0.0 **** -0.24
16627 H 103.55550970776778 14.398446933349533 35.18188168659344 H 0.0 **** 0.06
16628 H 102.33324180397517 13.46237976995603 36.07508228497983 H 0.0 **** 0.06
16629 H 103.92788808824471 13.771371974521529 36.8051001415776 H 0.0 **** 0.06
16630 H 103.78094721749846 12.650798501305445 35.43017929638921 H 0.0 **** 0.06
16631 C 68.24178540715633 54.12649830671759 58.97992320219795 C 0.0 **** -0.24
16632 H 67.38929341843516 54.799545491476295 58.88764855616209 H 0.0 **** 0.06
16633 H 69.01714554653167 54.42306441428522 58.274278916616325 H 0.0 **** 0.06
16634 H 67.92330304400836 53.1059441090064 58.76319778745124 H 0.0 **** 0.06
16635 H 68.63562492473022 54.17512116999396 59.99525860077183 H 0.0 **** 0.06
16636 C 28.724665480831135 30.53454571878848 55.9941776395454 C 0.0 **** -0.24
16637 H 27.75312456861596 30.97642646541334 56.21683746464646 H 0.0 **** 0.06
16638 H 28.637232053471706 29.886049752266672 55.121552773730855 H 0.0 **** 0.06
16639 H 29.061707426416348 29.950220875546222 56.849386873641265 H 0.0 **** 0.06
16640 H 29.44516473769056 31.325984576285123 55.78729102344175 H 0.0 **** 0.06
16641 C 38.98649179208098 80.62532637156187 40.204472032304466 C 0.0 **** -0.24
16642 H 39.066359832026706 81.56053274683802 39.64866728036395 H 0.0 **** 0.06
16643 H 39.84654627628311 80.52205912517024 40.865927138175266 H 0.0 **** 0.06
16644 H 38.96148451943969 79.78920887954712 39.50535694842978 H 0.0 **** 0.06
16645 H 38.07108037580764 80.63163452952028 40.7954431100992 H 0.0 **** 0.06
16646 C 64.76064540301186 36.803404002163745 96.50459272422947 C 0.0 **** -0.24
16647 H 64.80485705551725 36.00481330962859 95.76421719007416 H 0.0 **** 0.06
16648 H 65.65920667965081 36.7781968019641 97.12087506610172 H 0.0 **** 0.06
16649 H 63.88220329881763 36.66374660042479 97.13633957759473 H 0.0 **** 0.06
16650 H 64.69349388823711 37.7658410688158 95.9970247103897 H 0.0 **** 0.06
16651 C 8.109390947388931 73.47582967715815 88.48729446386601 C 0.0 **** -0.24
16652 H 7.949076380886311 73.27519164296915 89.5459031061346 H 0.0 **** 0.06
16653 H 8.956324371633684 72.8886721330126 88.13085436169229 H 0.0 **** 0.06
16654 H 8.317095234082501 74.53574256859926 88.34573094534667 H 0.0 **** 0.06
16655 H 7.215526603561301 73.20250044240356 87.92612301487507 H 0.0 **** 0.06
16656 C 97.44647666326726 35.37395876784486 83.3712189895341 C 0.0 **** -0.24
16657 H 98.09580126263799 34.51938490755583 83.1796078894098 H 0.0 **** 0.06
16658 H 97.93801176529573 36.28619494432742 83.03384221775639 H 0.0 **** 0.06
16659 H 97.2440364192498 35.44229768389008 84.43965963209689 H 0.0 **** 0.06
16660 H 96.50889983172837 35.24494389684182 82.83066691472311 H 0.0 **** 0.06
16661 C 4.770872649313873 100.50587682874533 81.25589669964862 C 0.0 **** -0.24
16662 H 5.150733023017764 100.12773371976122 80.30639018189956 H 0.0 **** 0.06
16663 H 3.6990359019038266 100.68593085162728 81.17178217396619 H 0.0 **** 0.06
16664 H 5.2786450748039755 101.43856828177952 81.50389181523099 H 0.0 **** 0.06
16665 H 4.957068527792984 99.7716389512401 82.03909367262665 H 0.0 **** 0.06
16666 C 102.96484432940011 37.576198447252935 88.62882823185146 C 0.0 **** -0.24
16667 H 103.06642139984467 37.74696199152031 87.55775888213242 H 0.0 **** 0.06
16668 H 103.81441342383334 38.019892244232764 89.14930776203465 H 0.0 **** 0.06
16669 H 102.93727257410566 36.50456868244913 88.82552632718898 H 0.0 **** 0.06
16670 H 102.0411711942547 38.035519249890996 88.98333228833394 H 0.0 **** 0.06
16671 C 39.635674265446085 36.396288643647814 42.32579908475836 C 0.0 **** -0.24
16672 H 39.78100002265063 35.62527145171394 41.56818065242983 H 0.0 **** 0.06
16673 H 38.64614446584895 36.84057362310871 42.20614346347779 H 0.0 **** 0.06
16674 H 40.39691878443759 37.167247149752214 42.209100999190184 H 0.0 **** 0.06
16675 H 39.717203446447655 35.95135704586963 43.31723014520521 H 0.0 **** 0.06
16676 C 23.16391369415534 57.29086367879019 89.44444024398354 C 0.0 **** -0.24
16677 H 23.691242889410105 58.242615972392024 89.38932994135742 H 0.0 **** 0.06
16678 H 22.674920290787437 57.090322278714744 88.49120664186479 H 0.0 **** 0.06
16679 H 22.413990271397058 57.33638783360372 90.23449982647371 H 0.0 **** 0.06
16680 H 23.87448618992762 56.49348452540615 89.66397146942823 H 0.0 **** 0.06
16681 C 91.23801622539561 13.572531646914314 51.02742814471954 C 0.0 **** -0.24
16682 H 92.08599724640438 12.924627305652606 50.80733765760767 H 0.0 **** 0.06
16683 H 91.27380821248242 14.450340220356722 50.38116750625358 H 0.0 **** 0.06
16684 H 91.28193046453103 13.886259954685045 52.0705296786798 H 0.0 **** 0.06
16685 H 90.309483519309 13.02851410017361 50.85030758077064 H 0.0 **** 0.06
16686 C 73.7059119761044 86.4481671892214 50.57825420467108 C 0.0 **** -0.24
16687 H 72.70232907944212 86.87362872055103 50.599434080078424 H 0.0 **** 0.06
16688 H 73.82065003461896 85.74644321542036 51.4044378116682 H 0.0 **** 0.06
16689 H 74.44092470642794 87.24760826675372 50.676345983686645 H 0.0 **** 0.06
16690 H 73.86055683789986 85.927168800921 49.6344071482842 H 0.0 **** 0.06
16691 C 25.417832922807605 50.38673625224595 16.13037229202439 C 0.0 **** -0.24
16692 H 25.798390628889763 49.5056106536893 15.614139591811679 H 0.0 **** 0.06
16693 H 26.179136110237437 51.16851812574549 16.12363500376574 H 0.0 **** 0.06
16694 H 25.173486223327927 50.12713548929952 17.160332404358115 H 0.0 **** 0.06
16695 H 24.52300965997418 50.74626384784358 15.62402965808559 H 0.0 **** 0.06
16696 C 79.33634482256703 68.82407032349323 74.7100645336876 C 0.0 **** -0.24
16697 H 80.26087786589723 69.34598738975671 74.46282185223872 H 0.0 **** 0.06
16698 H 78.48575742730294 69.46796799143229 74.48509206482636 H 0.0 **** 0.06
16699 H 79.33236038534736 68.57511879058097 75.77195013696874 H 0.0 **** 0.06
16700 H 79.26643683880782 67.90996238963152 74.12157986429952 H 0.0 **** 0.06
16701 C 60.15342772085734 9.577072746883704 81.55644842541467 C 0.0 **** -0.24
16702 H 59.63975428189394 10.440995605780175 81.97817890593362 H 0.0 **** 0.06
16703 H 59.48251504546488 8.717525319439776 81.5616589256062 H 0.0 **** 0.06
16704 H 61.036731238146444 9.35210690818273 82.15398751630323 H 0.0 **** 0.06
16705 H 60.45441784368501 9.79671224644905 80.53186696621341 H 0.0 **** 0.06
16706 C 15.916199191919628 18.090929218308244 83.35790593925451 C 0.0 **** -0.24
16707 H 16.37430157914438 17.350128086397955 82.70179799083473 H 0.0 **** 0.06
16708 H 16.025894321356763 17.773023555192154 84.39526977450967 H 0.0 **** 0.06
16709 H 14.857805956569248 18.18454930857994 83.11694391806945 H 0.0 **** 0.06
16710 H 16.408418530973407 19.053223303835498 83.21836416488046 H 0.0 **** 0.06
16711 C 2.57657579414996 92.10577856989596 57.96664074569099 C 0.0 **** -0.24
16712 H 3.6299946627782447 92.35459999462284 58.09467702262877 H 0.0 **** 0.06
16713 H 1.962328290446976 92.88196870800351 58.4241280409481 H 0.0 **** 0.06
16714 H 2.3685289091333743 91.14884543195924 58.443433246748846 H 0.0 **** 0.06
16715 H 2.3463246004512257 92.03978165596294 56.903373378799444 H 0.0 **** 0.06
16716 C 84.12254762561096 45.84559768057716 92.64652423089044 C 0.0 **** -0.24
16717 H 84.30078855965505 45.37923958811916 93.61564188228334 H 0.0 **** 0.06
16718 H 84.97815205444947 46.46678649690443 92.37997918116945 H 0.0 **** 0.06
16719 H 83.22664614994352 46.463980772386776 92.70082523964412 H 0.0 **** 0.06
16720 H 83.9855811860645 45.0723679593134 91.89067259657202 H 0.0 **** 0.06
16721 C 92.24258464298666 79.48795756139194 26.36401011159282 C 0.0 **** -0.24
16722 H 92.07868751278684 79.61339622997592 25.293156417251254 H 0.0 **** 0.06
16723 H 91.44087599308003 78.88111565407648 26.784971929426348 H 0.0 **** 0.06
16724 H 92.2535034257377 80.46451999048162 26.847256708624286 H 0.0 **** 0.06
16725 H 93.19933491581622 78.99131654138057 26.528096548788312 H 0.0 **** 0.06
16726 C 36.092467917215515 7.8976691299428605 49.222904205443506 C 0.0 **** -0.24
16727 H 35.28206695311155 8.502727622161975 48.817891675539784 H 0.0 **** 0.06
16728 H 37.03105917997647 8.181171558294247 48.74498936283574 H 0.0 **** 0.06
16729 H 35.89034883090187 6.844363946684984 49.031168122660475 H 0.0 **** 0.06
16730 H 36.16764624861321 8.064515364303054 50.2977112985238 H 0.0 **** 0.06
16731 C 2.549307231838611 46.7121461335291 84.74884373476145 C 0.0 **** -0.24
16732 H 3.583790160288345 46.36906655060076 84.74382699106951 H 0.0 **** 0.06
16733 H 2.5089955762970817 47.7386834033 85.11392583300928 H 0.0 **** 0.06
16734 H 1.956886006854404 46.069978669718694 85.40068631870643 H 0.0 **** 0.06
16735 H 2.148226768522136 46.66983154632214 83.73535386115357 H 0.0 **** 0.06
16736 C 66.0183771362061 37.5842583349492 42.208666791466385 C 0.0 **** -0.24
16737 H 65.77351251952022 38.47631237581473 42.78432343284442 H 0.0 **** 0.06
16738 H 65.14400087721005 37.26925623664508 41.638003490076244 H 0.0 **** 0.06
16739 H 66.31733588274878 36.78427400300657 42.88573948244613 H 0.0 **** 0.06
16740 H 66.83795629296134 37.80607909038292 41.52453427166898 H 0.0 **** 0.06
16741 C 14.67140340975402 96.57930629988861 107.06280571968784 C 0.0 **** -0.24
16742 H 14.524089717410874 95.50354295950979 106.96803963011993 H 0.0 **** 0.06
16743 H 15.302785360633337 96.7842229628821 107.92820144822184 H 0.0 **** 0.06
16744 H 13.706532725807477 97.06774522938133 107.19285419943287 H 0.0 **** 0.06
16745 H 15.153531964988531 96.96016745059896 106.1630493640074 H 0.0 **** 0.06
16746 C 8.081916027431191 4.986605167537704 76.83105147113216 C 0.0 **** -0.24
16747 H 7.5923195929774465 5.366082697355921 77.72783507657942 H 0.0 **** 0.06
16748 H 8.96476745852209 5.590155732747206 76.6177211542306 H 0.0 **** 0.06
16749 H 7.3919103876047245 5.040365634157979 75.98916447083297 H 0.0 **** 0.06
16750 H 8.380427398483732 3.9501571754560985 76.99082087746248 H 0.0 **** 0.06
16751 C 89.22480132846643 57.41804830200701 24.170372374433754 C 0.0 **** -0.24
16752 H 89.85214501154472 57.013623922734126 24.96389141747008 H 0.0 **** 0.06
16753 H 89.83551196803312 58.0171680264024 23.494097407340774 H 0.0 **** 0.06
16754 H 88.44535657555542 58.04405995996015 24.60692257308736 H 0.0 **** 0.06
16755 H 88.76544248110379 56.5995634155295 23.617285953740435 H 0.0 **** 0.06
16756 C 67.01968556261812 61.80057974406172 63.74243737479047 C 0.0 **** -0.24
16757 H 66.1999123212942 62.5140247592298 63.81829045498209 H 0.0 **** 0.06
16758 H 66.72787920651804 60.86085095218418 64.21193133796724 H 0.0 **** 0.06
16759 H 67.89774825096286 62.20157841394298 64.24826508141133 H 0.0 **** 0.06
16760 H 67.25336210302079 61.62529763331432 62.69254826633683 H 0.0 **** 0.06
16761 C 70.75787918930621 6.779536442922037 7.312640012763703 C 0.0 **** -0.24
16762 H 71.59147503383723 6.500725348915466 7.956969923755471 H 0.0 **** 0.06
16763 H 70.8370213392218 7.836032902749594 7.055026949331049 H 0.0 **** 0.06
16764 H 69.81889220279614 6.601594921620119 7.836519720280689 H 0.0 **** 0.06
16765 H 70.7865380362856 6.180166398189456 6.401812916386493 H 0.0 **** 0.06
16766 C 35.426046106279045 71.49647091120613 7.58617340448194 C 0.0 **** -0.24
16767 H 34.666609818833734 71.30699220762278 6.82811139073641 H 0.0 **** 0.06
16768 H 34.97119354464388 72.00540252427294 8.436828171551156 H 0.0 **** 0.06
16769 H 36.21086755922576 72.12399545166807 7.164012370709486 H 0.0 **** 0.06
16770 H 35.85452366957898 70.55039459841305 7.916198056369069 H 0.0 **** 0.06
16771 C 8.525582681516369 104.7566579873868 98.60265211388743 C 0.0 **** -0.24
16772 H 8.64828501278555 105.08837060425759 97.5720787093833 H 0.0 **** 0.06
16773 H 9.436648114127195 104.9655785864891 99.16265267689387 H 0.0 **** 0.06
16774 H 8.327592977943766 103.68430136846189 98.61827663972008 H 0.0 **** 0.06
16775 H 7.688383071952956 105.28645679271906 99.05707564578343 H 0.0 **** 0.06
16776 C 99.23820117158954 48.908506488506326 62.97101391074568 C 0.0 **** -0.24
16777 H 99.6243113195062 47.929836789598546 63.25375977253691 H 0.0 **** 0.06
16778 H 99.63460721705331 49.18657910828527 61.99471193356101 H 0.0 **** 0.06
16779 H 99.54432922755376 49.6475403949232 63.71122887413662 H 0.0 **** 0.06
16780 H 98.14970284726576 48.87105657794811 62.92442396343654 H 0.0 **** 0.06
16781 C 0.7408456985092897 0.9425212593163792 42.26970983694079 C 0.0 **** -0.24
16782 H 0.9611242303749918 1.7536701605432796 42.962815513908254 H 0.0 **** 0.06
16783 H 0.7814525513324355 -0.00992492948783763 42.80043213453479 H 0.0 **** 0.06
16784 H 1.4762033531327887 0.9413513956643129 41.46530605440401 H 0.0 **** 0.06
16785 H -0.2562859127200596 1.0827214530475828 41.850553263931175 H 0.0 **** 0.06
16786 C 69.02962216302974 24.872694556999388 83.54599556489991 C 0.0 **** -0.24
16787 H 68.51522310441011 24.470879590472116 84.41889306418261 H 0.0 **** 0.06
16788 H 70.05591640151403 24.50449751954867 83.5275609519928 H 0.0 **** 0.06
16789 H 69.03445853246791 25.961642103454697 83.59652843358461 H 0.0 **** 0.06
16790 H 68.51169563909976 24.553002659176357 82.64100718054839 H 0.0 **** 0.06
16791 C 5.985334518861748 14.971801694484107 39.085506080406844 C 0.0 **** -0.24
16792 H 5.351904425148007 15.664507645025836 38.53167444893603 H 0.0 **** 0.06
16793 H 5.3682162966979945 14.372223374804264 39.754503566033605 H 0.0 **** 0.06
16794 H 6.7147204757500845 15.53435462109682 39.669131031286156 H 0.0 **** 0.06
16795 H 6.506139192940793 14.317998070971722 38.386124204649036 H 0.0 **** 0.06
16796 C 22.614360962274702 95.3071512474292 21.365994038704486 C 0.0 **** -0.24
16797 H 21.766390347988818 95.97084584906955 21.536364346826815 H 0.0 **** 0.06
16798 H 22.71243633508854 95.11120450496827 20.297178850051296 H 0.0 **** 0.06
16799 H 22.451783462270583 94.3674980955386 21.89480426944715 H 0.0 **** 0.06
16800 H 23.525162999128412 95.77835725038054 21.734780205087517 H 0.0 **** 0.06
16801 C 104.87984454641438 31.030060455930055 9.343116289641301 C 0.0 **** -0.24
16802 H 103.91268310994079 31.507071331317547 9.504912873734298 H 0.0 **** 0.06
16803 H 105.50005378387684 31.15797285242013 10.230345477730793 H 0.0 **** 0.06
16804 H 105.37106773156597 31.48945442798822 8.485953749300336 H 0.0 **** 0.06
16805 H 104.7329389519133 29.96691129846033 9.152086620770149 H 0.0 **** 0.06
16806 C 59.31428740024859 16.518659018211977 46.47574777541848 C 0.0 **** -0.24
16807 H 60.02102414372814 16.570956586493537 45.64735845715663 H 0.0 **** 0.06
16808 H 58.443729359388044 17.135647321564335 46.24938542033988 H 0.0 **** 0.06
16809 H 59.79189190045656 16.88375760476754 47.38485374303053 H 0.0 **** 0.06
16810 H 59.00006562726355 15.48567117552362 46.619429455269625 H 0.0 **** 0.06
16811 C 15.292226838904782 15.014464814021323 91.35044344375909 C 0.0 **** -0.24
16812 H 15.79317751703286 15.940928691492672 91.63184498282098 H 0.0 **** 0.06
16813 H 15.02568487784444 14.45881784596071 92.2486652802412 H 0.0 **** 0.06
16814 H 15.960585438886795 14.412939202742507 90.73500913294777 H 0.0 **** 0.06
16815 H 14.3897373606612 15.247873577132452 90.78497653345133 H 0.0 **** 0.06
16816 C 12.228771352693514 51.80676538388616 71.52036262193872 C 0.0 **** -0.24
16817 H 11.648226671807038 52.069804909847846 70.63597707231177 H 0.0 **** 0.06
16818 H 12.09250734193381 52.57153329572719 72.28446459826849 H 0.0 **** 0.06
16819 H 13.283739163040025 51.74147103814846 71.25503404717817 H 0.0 **** 0.06
16820 H 11.889911929544098 50.8442314941837 71.90385124194674 H 0.0 **** 0.06
16821 C 101.96279765684567 29.186682358672385 61.81100394158827 C 0.0 **** -0.24
16822 H 101.51978937874064 30.0240444196005 62.35084483165265 H 0.0 **** 0.06
16823 H 102.58064200642589 29.567133737491076 60.997420615382936 H 0.0 **** 0.06
16824 H 101.17137569778562 28.558215260748057 61.4043541764578 H 0.0 **** 0.06
16825 H 102.57893022881065 28.601007329304252 62.493217338243866 H 0.0 **** 0.06
16826 C 22.71253875761454 1.1079613912149853 45.5764479760478 C 0.0 **** -0.24
16827 H 22.535173687854666 1.8581606323126039 46.3472621249791 H 0.0 **** 0.06
16828 H 21.759848376504777 0.6959832724504054 45.24418037563344 H 0.0 **** 0.06
16829 H 23.331960711282562 0.3083484195985875 45.98422156930848 H 0.0 **** 0.06
16830 H 23.22485024519426 1.5693256115263239 44.73191217202391 H 0.0 **** 0.06
16831 C 54.57807475195207 25.52904781296407 13.209465164747641 C 0.0 **** -0.24
16832 H 54.04093415598902 25.134028753174988 12.347249632527024 H 0.0 **** 0.06
16833 H 55.01056447989782 26.497700017688285 12.95648827770859 H 0.0 **** 0.06
16834 H 55.373449116987786 24.83757492922168 13.489244757553372 H 0.0 **** 0.06
16835 H 53.88755699502494 25.645558596187843 14.04531575845574 H 0.0 **** 0.06
16836 C 26.114245762240557 79.3924605269354 103.91148836285598 C 0.0 **** -0.24
16837 H 27.20349974406838 79.41048258696097 103.93736589186757 H 0.0 **** 0.06
16838 H 25.777064098806477 79.30375992560074 102.8793118356772 H 0.0 **** 0.06
16839 H 25.726723628589298 80.31488614045149 104.34317025730766 H 0.0 **** 0.06
16840 H 25.751518179233983 78.54072981120619 104.48740087601178 H 0.0 **** 0.06
16841 C 89.84295249886496 48.74376907341002 91.8136427965135 C 0.0 **** -0.24
16842 H 90.14541555566512 48.854923776337955 90.7719084339363 H 0.0 **** 0.06
16843 H 90.72843047755111 48.60425170330228 92.43517030165046 H 0.0 **** 0.06
16844 H 89.19032810420309 47.876510056002274 91.9110279987614 H 0.0 **** 0.06
16845 H 89.31042916536609 49.63831673402038 92.13544250886888 H 0.0 **** 0.06
16846 C 102.55648285250156 19.041438466986733 81.6453388831349 C 0.0 **** -0.24
16847 H 102.29744536227764 19.948116175757832 81.09919257684777 H 0.0 **** 0.06
16848 H 101.6858596275248 18.691718034059193 82.20066721189734 H 0.0 **** 0.06
16849 H 103.36855207914739 19.25547368035552 82.34015051410854 H 0.0 **** 0.06
16850 H 102.87334289821523 18.270807150691155 80.94250049484566 H 0.0 **** 0.06
16851 C 32.333635295062805 94.41312210772546 89.88311240970893 C 0.0 **** -0.24
16852 H 31.85491738105702 94.828629822338 90.77005221744432 H 0.0 **** 0.06
16853 H 31.8367316656514 94.79544533515475 88.9907383286282 H 0.0 **** 0.06
16854 H 32.256945158987065 93.32672165105566 89.90392846047132 H 0.0 **** 0.06
16855 H 33.38375057164035 94.70366758000645 89.86720926867868 H 0.0 **** 0.06
16856 C 0.8571801311871212 54.729475795109636 54.66072257995188 C 0.0 **** -0.24
16857 H 1.2032052378985743 54.319677375470604 53.710979635422575 H 0.0 **** 0.06
16858 H 1.1253864521326307 55.784176304188435 54.71879059416898 H 0.0 **** 0.06
16859 H 1.3262496635484453 54.18846899989455 55.48221518725046 H 0.0 **** 0.06
16860 H -0.22541819506960437 54.62496320361396 54.727884023895285 H 0.0 **** 0.06
16861 C 17.13717034754659 84.51734424993528 95.53807553674697 C 0.0 **** -0.24
16862 H 18.210303332228385 84.45371162023267 95.71451003615037 H 0.0 **** 0.06
16863 H 16.610832671426465 84.51784492257435 96.49261632207077 H 0.0 **** 0.06
16864 H 16.81498652627637 83.66155960734723 94.9457936057081 H 0.0 **** 0.06
16865 H 16.911898197425145 85.43826004357952 94.99862920348009 H 0.0 **** 0.06
16866 C 65.99729464418482 105.48608844246348 22.638117105709924 C 0.0 **** -0.24
16867 H 66.70328685725053 106.20242194279774 22.219015713065545 H 0.0 **** 0.06
16868 H 65.67205754643453 105.82978096306232 23.62034672007354 H 0.0 **** 0.06
16869 H 66.48004016788326 104.51361317577033 22.733533618553935 H 0.0 **** 0.06
16870 H 65.13309363135642 105.39937148791557 21.978669959550018 H 0.0 **** 0.06
16871 C 54.35819134346673 65.10242916803739 43.2521046122167 C 0.0 **** -0.24
16872 H 54.58023099803523 64.46081226511569 42.399333333909176 H 0.0 **** 0.06
16873 H 55.16572433573759 65.82411080759564 43.382790773489894 H 0.0 **** 0.06
16874 H 54.26664032313147 64.49400087791182 44.15164733893781 H 0.0 **** 0.06
16875 H 53.42293215043827 65.63231518849008 43.074873974158415 H 0.0 **** 0.06
16876 C 15.497825972013885 95.46879533378272 94.2203022847856 C 0.0 **** -0.24
16877 H 16.362888859974277 94.8911284186547 93.89747763122813 H 0.0 **** 0.06
16878 H 14.644073497302713 95.23360683800315 93.58278686759421 H 0.0 **** 0.06
16879 H 15.723208728721886 96.53303337477648 94.14717402719057 H 0.0 **** 0.06
16880 H 15.25907973486602 95.21871691438672 95.25406083007566 H 0.0 **** 0.06
16881 C 47.45536826546953 87.74391265500147 30.103435347781428 C 0.0 **** -0.24
16882 H 46.41602913419831 87.47120456831647 29.9186321913041 H 0.0 **** 0.06
16883 H 47.518108965834415 88.33539135469059 31.016760181769996 H 0.0 **** 0.06
16884 H 47.83195217032187 88.3276788087528 29.264131887665314 H 0.0 **** 0.06
16885 H 48.05311848172221 86.83941005526836 30.214311025329735 H 0.0 **** 0.06
16886 C 7.381875936210022 5.735791505708221 63.94503447797105 C 0.0 **** -0.24
16887 H 7.680367274236133 6.439718666060642 63.16782459174593 H 0.0 **** 0.06
16888 H 7.704074293747453 6.1094148424921855 64.91685211291845 H 0.0 **** 0.06
16889 H 7.84529219079846 4.767362888344209 63.7553634008884 H 0.0 **** 0.06
16890 H 6.296729575174368 5.626288860609634 63.938155438395015 H 0.0 **** 0.06
16891 C 97.80268220480411 91.98962987584471 51.28150477904856 C 0.0 **** -0.24
16892 H 98.45645597507388 92.76370212175567 50.88196674974253 H 0.0 **** 0.06
16893 H 97.52027586347498 92.2437799646901 52.30337224550016 H 0.0 **** 0.06
16894 H 98.32696652516643 91.03312786557444 51.27730470291817 H 0.0 **** 0.06
16895 H 96.90684111934394 91.91600448672608 50.66453088798309 H 0.0 **** 0.06
16896 C 96.81721718904186 55.47981251790492 38.67166434775078 C 0.0 **** -0.24
16897 H 96.3010676250403 55.734212683317594 37.745628216197076 H 0.0 **** 0.06
16898 H 97.87872291404639 55.70895258093668 38.56923284699053 H 0.0 **** 0.06
16899 H 96.69224410812362 54.416787868062954 38.87715892025636 H 0.0 **** 0.06
16900 H 96.39690163647637 56.06112846773118 39.49248303710979 H 0.0 **** 0.06
16901 C 88.47329861964158 20.382739951234313 104.8323149587211 C 0.0 **** -0.24
16902 H 87.70591627495716 19.692070480141496 104.48321223623398 H 0.0 **** 0.06
16903 H 88.00358690101689 21.305150627877623 105.17476668056631 H 0.0 **** 0.06
16904 H 89.16013168517792 20.606039394529006 104.01530489007713 H 0.0 **** 0.06
16905 H 89.02462853861856 19.92879499043005 105.65516546442478 H 0.0 **** 0.06
16906 C 98.43295974297348 104.5799537185924 106.10982747385492 C 0.0 **** -0.24
16907 H 98.02432336765838 103.58225550987498 106.26807182048168 H 0.0 **** 0.06
16908 H 97.61809724405745 105.2994142643892 106.03787416767483 H 0.0 **** 0.06
16909 H 99.01231698040235 104.59241016166997 105.18643278438104 H 0.0 **** 0.06
16910 H 99.07850569297514 104.84472966557945 106.9470632934765 H 0.0 **** 0.06
16911 C 10.169579772191128 47.96824352439279 36.69011916080879 C 0.0 **** -0.24
16912 H 11.027681536368675 48.27506763670311 37.28836413263602 H 0.0 **** 0.06
16913 H 9.883442113218052 48.78122434118711 36.02149653163636 H 0.0 **** 0.06
16914 H 9.335272986868034 47.72736550654264 37.3485184710124 H 0.0 **** 0.06
16915 H 10.432711345020891 47.08919375183518 36.10149534564849 H 0.0 **** 0.06
16916 C 16.83731961290024 27.217578763650373 104.26370588657846 C 0.0 **** -0.24
16917 H 17.605186220446022 27.094868876359037 105.0270982061333 H 0.0 **** 0.06
16918 H 16.279022342540184 26.286730175118297 104.15595688256008 H 0.0 **** 0.06
16919 H 17.307598186917403 27.471366125540584 103.31313932230375 H 0.0 **** 0.06
16920 H 16.15755331554431 28.017159909597904 104.55723008440998 H 0.0 **** 0.06
16921 C 91.15912507386678 9.298499648424212 70.09026493750503 C 0.0 **** -0.24
16922 H 91.29301483369105 8.555694493871044 69.30390513478768 H 0.0 **** 0.06
16923 H 92.10852144543546 9.798110940529483 70.28369401103578 H 0.0 **** 0.06
16924 H 90.81428170702404 8.806668576780766 70.99938424772301 H 0.0 **** 0.06
16925 H 90.41864104190513 10.033896862402827 69.77190955018924 H 0.0 **** 0.06
16926 C 7.748426743423693 49.65808477509631 56.741472754987456 C 0.0 **** -0.24
16927 H 6.839466239799492 49.70991919734274 57.340802966423155 H 0.0 **** 0.06
16928 H 7.8447924377410345 50.56730953598009 56.14934386285336 H 0.0 **** 0.06
16929 H 7.695401649770076 48.79484257983563 56.07721752458053 H 0.0 **** 0.06
16930 H 8.612090363480036 49.55793101578229 57.39937101015664 H 0.0 **** 0.06
16931 C 15.924635640333236 46.12168039119472 91.37490829027149 C 0.0 **** -0.24
16932 H 16.34390620905765 47.009139633518096 90.90150680944149 H 0.0 **** 0.06
16933 H 14.840977084473593 46.22154269242999 91.43825157325762 H 0.0 **** 0.06
16934 H 16.339780279106208 46.01337968043502 92.37697046240945 H 0.0 **** 0.06
16935 H 16.17452579560336 45.24220369348603 90.7813635479378 H 0.0 **** 0.06
16936 C 40.22447841291691 83.36144280878865 71.83910254530659 C 0.0 **** -0.24
16937 H 39.30900884302423 83.86315869100179 71.52644886753231 H 0.0 **** 0.06
16938 H 40.06228744682301 82.87485886969445 72.80111028312778 H 0.0 **** 0.06
16939 H 41.02716349229769 84.09316890966785 71.93203959888852 H 0.0 **** 0.06
16940 H 40.499751922057754 82.61359513849699 71.09509912660033 H 0.0 **** 0.06
16941 C 64.33858246480133 11.523307828458886 64.50762416300367 C 0.0 **** -0.24
16942 H 63.3516419775367 11.981994336953049 64.57159985239394 H 0.0 **** 0.06
16943 H 65.102208419835 12.27469478925571 64.70884232198713 H 0.0 **** 0.06
16944 H 64.48439691437369 11.11468083031404 63.50698891741948 H 0.0 **** 0.06
16945 H 64.41360196540188 10.721025159379284 65.24199418070467 H 0.0 **** 0.06
16946 C 104.14273561991598 7.787106515282497 75.13988674815084 C 0.0 **** -0.24
16947 H 105.09454794057007 8.317406213642615 75.11718820260865 H 0.0 **** 0.06
16948 H 103.93917886818406 7.448734402951263 76.1563304087154 H 0.0 **** 0.06
16949 H 104.19046625006098 6.926527531546048 74.47359083181561 H 0.0 **** 0.06
16950 H 103.34636859962455 8.45628584821752 74.81369307791334 H 0.0 **** 0.06
16951 C 37.85693434055861 35.14003759193363 105.32094314004524 C 0.0 **** -0.24
16952 H 37.35397925890079 34.436624978142916 105.9843190326487 H 0.0 **** 0.06
16953 H 37.190525111791416 35.97692745544931 105.10922431928725 H 0.0 **** 0.06
16954 H 38.11762611082884 34.63708413042158 104.38979421682936 H 0.0 **** 0.06
16955 H 38.76278823247068 35.50904168604677 105.80134753808107 H 0.0 **** 0.06
16956 C 1.0015238989653028 55.620692815149894 97.7904018732682 C 0.0 **** -0.24
16957 H 0.669512997809818 56.32213938092719 98.55678444948734 H 0.0 **** 0.06
16958 H 0.3208491015003858 54.7694837880912 97.7591968419365 H 0.0 **** 0.06
16959 H 2.0072303019320827 55.273893646333455 98.02680122110263 H 0.0 **** 0.06
16960 H 1.0070666664698535 56.11877187550426 96.82097770131975 H 0.0 **** 0.06
16961 C 69.84209172646871 44.577495446546834 23.348289329254726 C 0.0 **** -0.24
16962 H 70.64020309952494 44.53023239352399 22.606747561580647 H 0.0 **** 0.06
16963 H 68.87631725976094 44.57852270097382 22.841487199194034 H 0.0 **** 0.06
16964 H 69.94602713951677 45.4901291430252 23.934205554068285 H 0.0 **** 0.06
16965 H 69.90698629046024 43.71238126991136 24.007718503302158 H 0.0 **** 0.06
16966 C 26.612446577609035 52.8987471363213 102.02620583934552 C 0.0 **** -0.24
16967 H 27.07423955472666 52.262092133794134 101.27068521039558 H 0.0 **** 0.06
16968 H 26.156892550229088 53.76372630331828 101.54322932160127 H 0.0 **** 0.06
16969 H 27.372708589655304 53.234638483529686 102.73182784281803 H 0.0 **** 0.06
16970 H 25.847148793489225 52.33315718039751 102.55779121640066 H 0.0 **** 0.06
16971 C 97.32905257233791 30.447274989451216 61.9456065638542 C 0.0 **** -0.24
16972 H 97.69440888217781 31.240625140183354 61.29302780062551 H 0.0 **** 0.06
16973 H 96.69931383386903 30.87903387794985 62.724168789227974 H 0.0 **** 0.06
16974 H 98.17564322915689 29.935347382512163 62.40440733401482 H 0.0 **** 0.06
16975 H 96.74758907996747 29.73529119638559 61.360716875685796 H 0.0 **** 0.06
16976 C 92.65548528573531 51.06628882644734 29.311076470052214 C 0.0 **** -0.24
16977 H 92.59054000270717 50.129005005795214 28.75820951513799 H 0.0 **** 0.06
16978 H 93.42965298099213 51.69512596680416 28.87085270960125 H 0.0 **** 0.06
16979 H 92.90332805419317 50.85804504232299 30.35171482132459 H 0.0 **** 0.06
16980 H 91.69608420761666 51.583215978316645 29.26283037976097 H 0.0 **** 0.06
16981 C 68.76302155172348 61.4435996512851 8.17644575761841 C 0.0 **** -0.24
16982 H 68.29882150692569 60.49428610291287 8.446354776047315 H 0.0 **** 0.06
16983 H 69.38081461953433 61.307352309454274 7.289809409366626 H 0.0 **** 0.06
16984 H 69.3819931236444 61.7917091285758 9.00286311827017 H 0.0 **** 0.06
16985 H 67.98631425813542 62.180479820183024 7.969307752120159 H 0.0 **** 0.06
16986 C 35.59855137106904 79.05390201624596 91.03802357866158 C 0.0 **** -0.24
16987 H 36.06769024706936 78.76536297042804 91.97830790411854 H 0.0 **** 0.06
16988 H 36.181051807620456 78.65905277765938 90.2050433436226 H 0.0 **** 0.06
16989 H 35.55825464314545 80.14127955310863 90.96975206437389 H 0.0 **** 0.06
16990 H 34.58638497103608 78.64978320525307 90.99843910687747 H 0.0 **** 0.06
16991 C 63.86695299733097 85.55218166496998 79.42300888212611 C 0.0 **** -0.24
16992 H 64.3614158635205 86.5216794372812 79.36581419924187 H 0.0 **** 0.06
16993 H 63.42552204818347 85.31278541973403 78.45454207622197 H 0.0 **** 0.06
16994 H 63.084388380586205 85.58683012978071 80.18095928387251 H 0.0 **** 0.06
16995 H 64.59675158759968 84.7874266107502 79.68933095200617 H 0.0 **** 0.06
16996 C 41.112172520551724 22.297490812659078 35.62108156094766 C 0.0 **** -0.24
16997 H 40.5634813728106 22.892544698753767 34.890989369416616 H 0.0 **** 0.06
16998 H 41.466969795797894 21.380945568866963 35.148893618019656 H 0.0 **** 0.06
16999 H 40.454499700143856 22.04638680552881 36.4536354482058 H 0.0 **** 0.06
17000 H 41.96287752313856 22.869282833587874 35.99002536295828 H 0.0 **** 0.06
17001 C 59.7391245055306 54.53288945860581 93.08357727946459 C 0.0 **** -0.24
17002 H 58.71255380281546 54.85966010803904 92.92042029108221 H 0.0 **** 0.06
17003 H 59.8069543675185 53.456317569223984 92.92324063377427 H 0.0 **** 0.06
17004 H 60.0363475824857 54.7670765702141 94.10565532635921 H 0.0 **** 0.06
17005 H 60.399374644339225 55.04694834158596 92.38598006928788 H 0.0 **** 0.06
17006 C 94.29826638417501 89.69488498438398 33.49292880693176 C 0.0 **** -0.24
17007 H 93.70594688783422 89.4871934715721 34.385060321186586 H 0.0 **** 0.06
17008 H 95.33381663197325 89.87901009457792 33.77976387369864 H 0.0 **** 0.06
17009 H 93.89814727029712 90.57324627665238 32.98857898328819 H 0.0 **** 0.06
17010 H 94.2541033886495 88.83739937799439 32.82069014428919 H 0.0 **** 0.06
17011 C 13.55161676751446 2.8355278858277586 96.73208589706755 C 0.0 **** -0.24
17012 H 14.1564048641563 2.9206009468925345 95.8296898621178 H 0.0 **** 0.06
17013 H 12.556963729656246 3.2406184321322513 96.54320567794534 H 0.0 **** 0.06
17014 H 14.024209089657191 3.3938450882707087 97.54066127417182 H 0.0 **** 0.06
17015 H 13.468681506862637 1.7861831340986782 97.01588699332252 H 0.0 **** 0.06
17016 C 78.83723565925584 40.87944871679949 76.38677154393264 C 0.0 **** -0.24
17017 H 78.49653903288959 39.91157647069724 76.75555042841174 H 0.0 **** 0.06
17018 H 79.43530534279256 40.73444824414827 75.48709203134902 H 0.0 **** 0.06
17019 H 79.44163340560681 41.36633591830363 77.15161655407834 H 0.0 **** 0.06
17020 H 77.97429276227712 41.50201728993463 76.15380252568102 H 0.0 **** 0.06
17021 C 12.695581010181101 81.90337774937265 76.8381628880991 C 0.0 **** -0.24
17022 H 13.34387300496931 81.61642775726673 76.01032420133927 H 0.0 **** 0.06
17023 H 11.734640293884055 81.39728398180122 76.73887137258946 H 0.0 **** 0.06
17024 H 12.542261981459404 82.981975388389 76.82154746722844 H 0.0 **** 0.06
17025 H 13.161735177744632 81.61694988779331 77.78081238363812 H 0.0 **** 0.06
17026 C 83.73185220554205 53.376103243505895 24.928785918845634 C 0.0 **** -0.24
17027 H 84.43544610034898 54.15810102917476 25.214580964585195 H 0.0 **** 0.06
17028 H 84.27563272390961 52.44732502922568 24.75215480810924 H 0.0 **** 0.06
17029 H 83.21158976894594 53.671282523206685 24.017964385938228 H 0.0 **** 0.06
17030 H 83.00840659120105 53.227635513961246 25.729699414355025 H 0.0 **** 0.06
17031 C 92.81782437138611 37.37573315217975 44.26674160899242 C 0.0 **** -0.24
17032 H 93.56682386813397 37.393427357544454 45.057830941317434 H 0.0 **** 0.06
17033 H 91.82545248615948 37.4918870847448 44.704287135790395 H 0.0 **** 0.06
17034 H 92.87285141504053 36.42544898914093 43.73638823036009 H 0.0 **** 0.06
17035 H 93.00540310936019 38.19277800926136 43.569480780089236 H 0.0 **** 0.06
17036 C 81.81042243807511 78.54263752339284 92.18532526962997 C 0.0 **** -0.24
17037 H 82.47118616442188 78.04112973419605 92.89190216483951 H 0.0 **** 0.06
17038 H 82.30059633987219 78.60688142450165 91.21343740876702 H 0.0 **** 0.06
17039 H 81.58643927524614 79.54642476692078 92.54729274173181 H 0.0 **** 0.06
17040 H 80.88441295518479 77.97631075165872 92.08840721182432 H 0.0 **** 0.06
17041 C 77.72871540631967 24.68552714436555 106.78696912182961 C 0.0 **** -0.24
17042 H 77.3760914179236 25.47822640359456 107.4480197917682 H 0.0 **** 0.06
17043 H 78.07066007459339 25.121697589316852 105.84765183898796 H 0.0 **** 0.06
17044 H 76.91401865459324 23.98867610068868 106.5892406515919 H 0.0 **** 0.06
17045 H 78.55352372863071 24.15558298815708 107.26357602408807 H 0.0 **** 0.06
17046 C 2.59953753203483 90.0867570097862 91.31357539028174 C 0.0 **** -0.24
17047 H 2.0055520012874126 90.29560673110899 92.20249980908173 H 0.0 **** 0.06
17048 H 2.654240416530101 90.98335501245379 90.69426655763361 H 0.0 **** 0.06
17049 H 2.1333663545393478 89.28096481281392 90.74604380195017 H 0.0 **** 0.06
17050 H 3.6051132979471134 89.78756520781599 91.6093072863676 H 0.0 **** 0.06
17051 C 55.36886326131901 11.640390193640087 84.84943630371535 C 0.0 **** -0.24
17052 H 55.543885030368244 11.406561956809583 83.79914231717123 H 0.0 **** 0.06
17053 H 56.31203300119546 11.595851730949391 85.39343524312676 H 0.0 **** 0.06
17054 H 54.67103463685646 10.915402763974498 85.27045319692985 H 0.0 **** 0.06
17055 H 54.946650910057485 12.641571337645985 84.93335134779076 H 0.0 **** 0.06
17056 C 29.528386636785598 54.625023275092914 61.09539533319287 C 0.0 **** -0.24
17057 H 28.566655090211583 54.70634843719925 60.58981416867806 H 0.0 **** 0.06
17058 H 30.33143030838025 54.69069914972559 60.361572310102076 H 0.0 **** 0.06
17059 H 29.586234389605295 53.66771742581097 61.61416300031328 H 0.0 **** 0.06
17060 H 29.628417237629776 55.43597990164067 61.81741747696236 H 0.0 **** 0.06
17061 C 58.5658084062982 71.04539259593031 39.73781735494913 C 0.0 **** -0.24
17062 H 59.22270673448472 70.22946905605113 40.043376164926634 H 0.0 **** 0.06
17063 H 57.932701161335444 71.33388234902111 40.5766263709041 H 0.0 **** 0.06
17064 H 57.94200148844749 70.71664199298601 38.90626597072024 H 0.0 **** 0.06
17065 H 59.16865286340126 71.89804419466896 39.42623351039652 H 0.0 **** 0.06
17066 C 19.44312106345714 79.75371048919276 72.36670854790947 C 0.0 **** -0.24
17067 H 18.88371279760824 80.6819255954576 72.48615664319777 H 0.0 **** 0.06
17068 H 20.507620711135274 79.98004306846487 72.29355906962803 H 0.0 **** 0.06
17069 H 19.116088030317343 79.24738705920682 71.45863934482185 H 0.0 **** 0.06
17070 H 19.265165522756746 79.10935300932482 73.22705145785352 H 0.0 **** 0.06
17071 C 80.65971026238581 55.138555098453594 46.570097682574385 C 0.0 **** -0.24
17072 H 81.53081453840083 55.26364331070778 47.214338361054274 H 0.0 **** 0.06
17073 H 79.80939442317306 54.81060377850676 47.16845847394134 H 0.0 **** 0.06
17074 H 80.87705467832981 54.39011435583424 45.80822134376169 H 0.0 **** 0.06
17075 H 80.42339573146286 56.08832878425983 46.089966334849265 H 0.0 **** 0.06
17076 C 56.514721864444894 85.27353649258731 19.732465501171376 C 0.0 **** -0.24
17077 H 55.74034964409985 85.97071174619003 19.412925168818262 H 0.0 **** 0.06
17078 H 57.03798592996872 84.88741296469357 18.858003939904073 H 0.0 **** 0.06
17079 H 56.05639796050444 84.44766768551887 20.276472503029453 H 0.0 **** 0.06
17080 H 57.2218279720702 85.7899217855429 20.382098409391315 H 0.0 **** 0.06
17081 C 82.23728412277305 107.09320026320324 14.598270862378286 C 0.0 **** -0.24
17082 H 82.28520356844635 107.21877356603514 13.51673733781864 H 0.0 **** 0.06
17083 H 82.88406915565932 106.26876658454466 14.897526461721299 H 0.0 **** 0.06
17084 H 81.21100600027225 106.87568431370363 14.892793692520343 H 0.0 **** 0.06
17085 H 82.56919279429277 108.01101930212005 15.08435067710083 H 0.0 **** 0.06
17086 C 45.7300141283012 28.50511369221011 71.58371949045365 C 0.0 **** -0.24
17087 H 44.956181510353865 28.90086275240894 72.2424838853511 H 0.0 **** 0.06
17088 H 45.893620408655785 29.197776632301235 70.75839547796683 H 0.0 **** 0.06
17089 H 45.41091639209707 27.53972728030719 71.1906235381895 H 0.0 **** 0.06
17090 H 46.65584306622122 28.381617955565037 72.14412578292105 H 0.0 **** 0.06
17091 C 61.53104204097352 69.46464103846748 25.387598286928846 C 0.0 **** -0.24
17092 H 62.02475228420185 68.6617584089903 24.839926491000803 H 0.0 **** 0.06
17093 H 60.960726741844724 69.0416606113223 26.21499405388598 H 0.0 **** 0.06
17094 H 60.858424976225024 70.0005109121575 24.718938130875156 H 0.0 **** 0.06
17095 H 62.280965724163124 70.15367674267446 25.777303326028 H 0.0 **** 0.06
17096 C 40.05276859434724 12.805404098363663 66.30015442953139 C 0.0 **** -0.24
17097 H 41.04742499374734 13.192653358255171 66.52128870949569 H 0.0 **** 0.06
17098 H 40.08175156651524 12.242056765242532 65.36746558691311 H 0.0 **** 0.06
17099 H 39.35291997804636 13.634834588726662 66.20171331825038 H 0.0 **** 0.06
17100 H 39.72941429194307 12.151229282560736 67.10983400312169 H 0.0 **** 0.06
17101 C 49.601331796788116 62.86324521015621 50.6449479216056 C 0.0 **** -0.24
17102 H 48.59315311936871 62.61790509196811 50.3104861069096 H 0.0 **** 0.06
17103 H 50.2844783322133 62.06624348810283 50.35248981758404 H 0.0 **** 0.06
17104 H 49.608447611077366 62.96822805093757 51.72982426119465 H 0.0 **** 0.06
17105 H 49.918023430823695 63.80053222747006 50.1876950887403 H 0.0 **** 0.06
17106 C 25.90610854062936 46.6260787477144 44.084840566203184 C 0.0 **** -0.24
17107 H 25.620249498098644 46.261027818641914 45.071527017835535 H 0.0 **** 0.06
17108 H 26.988508768633864 46.56307005649009 43.97338495621398 H 0.0 **** 0.06
17109 H 25.589163685860854 47.66307676364912 43.975498140050206 H 0.0 **** 0.06
17110 H 25.42428385353952 46.017285501237765 43.31906872594436 H 0.0 **** 0.06
17111 C 61.390195989187276 56.43941282376601 32.93496900423884 C 0.0 **** -0.24
17112 H 60.39201433972161 56.62958059966557 32.54011417709131 H 0.0 **** 0.06
17113 H 61.72089262080496 57.30183838247485 33.5143045127507 H 0.0 **** 0.06
17114 H 62.080466645438065 56.26817009730791 32.109949015880204 H 0.0 **** 0.06
17115 H 61.36472580292562 55.55781645518669 33.5768248290027 H 0.0 **** 0.06
17116 C 92.07654990083235 68.46986587800262 75.46171512140359 C 0.0 **** -0.24
17117 H 92.12297191125938 69.19757677007055 76.27168891526023 H 0.0 **** 0.06
17118 H 91.5139255468353 67.59584840346474 75.79150603846466 H 0.0 **** 0.06
17119 H 93.08776473082511 68.16924856583006 75.18522178499785 H 0.0 **** 0.06
17120 H 91.5822747221405 68.9164858168806 74.59961168537436 H 0.0 **** 0.06
17121 C 15.778622422197543 66.36332340132431 69.40080909582406 C 0.0 **** -0.24
17122 H 16.18343358580023 67.07665160077673 68.68175723081157 H 0.0 **** 0.06
17123 H 14.801761340319729 66.02031942619884 69.06009308187976 H 0.0 **** 0.06
17124 H 15.676301643855027 66.84697152256132 70.37276882025577 H 0.0 **** 0.06
17125 H 16.453470217164238 65.51219596035023 69.4877930480248 H 0.0 **** 0.06
17126 C 19.398671393722452 95.51007650343789 83.03026116138008 C 0.0 **** -0.24
17127 H 19.021416849010976 94.48734721676706 83.05169832600356 H 0.0 **** 0.06
17128 H 19.423305971127007 95.90981363625097 84.04425380997114 H 0.0 **** 0.06
17129 H 18.74469819969569 96.12533852348888 82.41259102370972 H 0.0 **** 0.06
17130 H 20.405229851471915 95.5173984324316 82.61158923009296 H 0.0 **** 0.06
17131 C 88.43212592955237 38.67154041454009 97.98086318361067 C 0.0 **** -0.24
17132 H 88.56310130196717 39.657840984742364 98.42699812362565 H 0.0 **** 0.06
17133 H 89.11542988605032 37.96650388615009 98.45578630349162 H 0.0 **** 0.06
17134 H 88.64743087256564 38.723502085721066 96.91412824848913 H 0.0 **** 0.06
17135 H 87.40529829657567 38.33835240163788 98.12960605022975 H 0.0 **** 0.06
17136 C 28.140749440927312 25.26345153916685 24.85275740712507 C 0.0 **** -0.24
17137 H 27.073489251175616 25.435235743813735 24.996835987768435 H 0.0 **** 0.06
17138 H 28.690146384914158 26.172341308416662 25.09768205573505 H 0.0 **** 0.06
17139 H 28.328452708862805 24.99354358733666 23.81386527859138 H 0.0 **** 0.06
17140 H 28.469168883978064 24.453925557096653 25.503843434544365 H 0.0 **** 0.06
17141 C 61.374732287548525 24.116411118791433 28.62480865224309 C 0.0 **** -0.24
17142 H 60.354696913683156 23.885681631299917 28.318736088843963 H 0.0 **** 0.06
17143 H 61.90781292427722 24.57773001433904 27.793163509994642 H 0.0 **** 0.06
17144 H 61.88342385822811 23.197804516768514 28.918194968444112 H 0.0 **** 0.06
17145 H 61.35405903377648 24.805007723672077 29.469870228761465 H 0.0 **** 0.06
17146 C 59.57274652883092 19.154259433169116 77.31662519263756 C 0.0 **** -0.24
17147 H 59.226641004611224 18.33504485718592 77.94777826834448 H 0.0 **** 0.06
17148 H 59.7040460349906 20.049593860796875 77.92458277902166 H 0.0 **** 0.06
17149 H 58.83536146238464 19.348439736107196 76.53743715189307 H 0.0 **** 0.06
17150 H 60.52328108165318 18.882037360909806 76.85830336786039 H 0.0 **** 0.06
17151 C 99.81487991364196 18.997092010052967 13.45752098164786 C 0.0 **** -0.24
17152 H 100.60480919028248 18.883764530627445 14.199176070930037 H 0.0 **** 0.06
17153 H 99.0190590517741 19.62051042785012 13.866032149721619 H 0.0 **** 0.06
17154 H 99.41378899800338 18.01619262576193 13.20111658662411 H 0.0 **** 0.06
17155 H 100.22163392084661 19.467785520851123 12.5623681942064 H 0.0 **** 0.06
17156 C 102.33300765031143 86.9353500886451 96.3438993114865 C 0.0 **** -0.24
17157 H 101.71975402802205 86.2996951480171 95.70535214156527 H 0.0 **** 0.06
17158 H 102.39897039153949 86.49637163835223 97.33914326118295 H 0.0 **** 0.06
17159 H 101.88112679713846 87.92556932137654 96.41140729257211 H 0.0 **** 0.06
17160 H 103.3324374831194 87.02113883952437 95.91685829595762 H 0.0 **** 0.06
17161 C 44.442821216481974 66.1174052499614 19.635701225740632 C 0.0 **** -0.24
17162 H 45.435226679007286 65.83366972690868 19.984324522996786 H 0.0 **** 0.06
17163 H 43.79580576211566 65.24059853370773 19.625229120358114 H 0.0 **** 0.06
17164 H 44.51623337108202 66.52722409064444 18.62764569861463 H 0.0 **** 0.06
17165 H 44.02436362367749 66.87063216491941 20.303988745622945 H 0.0 **** 0.06
17166 C 70.7019400095856 106.38458819511348 72.86410004605682 C 0.0 **** -0.24
17167 H 71.63704126288059 106.12480632399335 73.35895625958193 H 0.0 **** 0.06
17168 H 70.91613513366991 106.95080215377415 71.95681178957435 H 0.0 **** 0.06
17169 H 70.09262305203237 106.99087756401984 73.53531894692694 H 0.0 **** 0.06
17170 H 70.16254734319295 105.47387924149396 72.60609150878383 H 0.0 **** 0.06
17171 C 66.74390150190297 20.67221212653851 46.73805394028983 C 0.0 **** -0.24
17172 H 66.89412020836258 21.509033688759644 47.420869263181956 H 0.0 **** 0.06
17173 H 67.71126272404089 20.25151408835592 46.46157394986949 H 0.0 **** 0.06
17174 H 66.23041057835451 21.02162702653345 45.84283499281553 H 0.0 **** 0.06
17175 H 66.14085833648714 19.907980316192777 47.22842052878283 H 0.0 **** 0.06
17176 C 25.001125800911552 103.80769753102568 25.69976549555838 C 0.0 **** -0.24
17177 H 24.67983381878787 104.82714830160737 25.909248709858105 H 0.0 **** 0.06
17178 H 25.913227004594148 103.82935952393858 25.102238993247624 H 0.0 **** 0.06
17179 H 24.218391513759684 103.28467613557525 25.149511550197644 H 0.0 **** 0.06
17180 H 25.193574668280235 103.28854508227417 26.639327591601557 H 0.0 **** 0.06
17181 C 86.02258222467462 89.13093787358525 51.529915459016934 C 0.0 **** -0.24
17182 H 85.5456470613232 89.56683710153288 52.409021551373144 H 0.0 **** 0.06
17183 H 87.09087515771273 89.34642327467151 51.552297643761676 H 0.0 **** 0.06
17184 H 85.58413029184098 89.56097066689256 50.629470901932905 H 0.0 **** 0.06
17185 H 85.86822932835122 88.05225222665138 51.53097983451187 H 0.0 **** 0.06
17186 C 88.79235253833053 9.141494070656208 59.23404267330031 C 0.0 **** -0.24
17187 H 88.90319206532087 8.79868915275496 60.26341294424583 H 0.0 **** 0.06
17188 H 89.73268669903776 9.575703348030146 58.8929639098391 H 0.0 **** 0.06
17189 H 88.00499135204355 9.89328465672061 59.1847582018724 H 0.0 **** 0.06
17190 H 88.52948827944076 8.296646233620848 58.59657481303165 H 0.0 **** 0.06
17191 C 23.580696058345808 71.3779828373718 32.733381048227486 C 0.0 **** -0.24
17192 H 24.37714439316727 71.38663887370527 33.47795331607385 H 0.0 **** 0.06
17193 H 22.878972551522907 72.18441455212016 32.94417164156954 H 0.0 **** 0.06
17194 H 23.059083618438393 70.42138514990353 32.772840677841394 H 0.0 **** 0.06
17195 H 24.010032409303733 71.51751683177096 31.741223161176087 H 0.0 **** 0.06
17196 C 91.3532538265149 2.024872354650938 25.479306293629065 C 0.0 **** -0.24
17197 H 92.34299225627011 1.7432409614431776 25.11985350619281 H 0.0 **** 0.06
17198 H 90.59403325768044 1.5152035496272447 24.887078728009925 H 0.0 **** 0.06
17199 H 91.2265055243236 3.1033461338643065 25.383197517945064 H 0.0 **** 0.06
17200 H 91.25250588464932 1.7391904473595332 26.5254689581665 H 0.0 **** 0.06
17201 C 76.72911062751443 79.9100261279942 24.796343280310566 C 0.0 **** -0.24
17202 H 75.9482315414032 80.43896281179877 25.341637227566252 H 0.0 **** 0.06
17203 H 77.41295590417506 79.441165065343 25.505225312558025 H 0.0 **** 0.06
17204 H 77.27890771605703 80.61572697475319 24.173788726369878 H 0.0 **** 0.06
17205 H 76.27728039213382 79.14374072722396 24.165654865399745 H 0.0 **** 0.06
17206 C 74.35797616285507 91.88230592967926 9.256153332049635 C 0.0 **** -0.24
17207 H 75.24324515371094 91.24639313686872 9.243136109125842 H 0.0 **** 0.06
17208 H 74.64491874116402 92.89749182036297 9.528781710617096 H 0.0 **** 0.06
17209 H 73.64413428389403 91.49740664839005 9.984539239242224 H 0.0 **** 0.06
17210 H 73.89972766127048 91.88728598623803 8.266553780041178 H 0.0 **** 0.06
17211 C 21.220386440111156 92.90285412366147 92.47611904579242 C 0.0 **** -0.24
17212 H 20.555894609824747 92.09573218815447 92.16730598281742 H 0.0 **** 0.06
17213 H 20.680042423326086 93.58665885589339 93.13178298508024 H 0.0 **** 0.06
17214 H 21.570388616899493 93.44255969148949 91.59712928164333 H 0.0 **** 0.06
17215 H 22.074052074396604 92.48630238999247 93.01040485671251 H 0.0 **** 0.06
17216 C 2.1506247242989787 15.61967231874857 64.13713888119973 C 0.0 **** -0.24
17217 H 2.17631860237573 16.607220850201927 64.59783664799072 H 0.0 **** 0.06
17218 H 2.5100357352977625 14.877429859711071 64.85050807423636 H 0.0 **** 0.06
17219 H 2.7890309031563447 15.613407964650293 63.253433593262926 H 0.0 **** 0.06
17220 H 1.1277123828081557 15.380535639397564 63.84757254263393 H 0.0 **** 0.06
17221 C 12.25673862523652 106.02281490016395 85.75791122984592 C 0.0 **** -0.24
17222 H 11.859585965387987 106.37877254482785 84.80726690627918 H 0.0 **** 0.06
17223 H 11.481395596980946 105.47209689298114 86.2919642647361 H 0.0 **** 0.06
17224 H 12.57731398175682 106.8738666743763 86.35914583118662 H 0.0 **** 0.06
17225 H 13.10777806239955 105.36667309225118 85.57436415430257 H 0.0 **** 0.06
17226 C 84.62573431792703 71.18143914283161 90.23923785543836 C 0.0 **** -0.24
17227 H 85.6141378801156 71.26786254575381 90.69016699023747 H 0.0 **** 0.06
17228 H 83.98897167085158 70.56680814142766 90.87553241847995 H 0.0 **** 0.06
17229 H 84.71375644003479 70.71797793815324 89.25696218479183 H 0.0 **** 0.06
17230 H 84.18607128070624 72.17310794599183 90.13428982824387 H 0.0 **** 0.06
17231 C 56.98808049459083 3.1526584255611745 93.22661014445856 C 0.0 **** -0.24
17232 H 57.068992459088264 2.776591436384855 94.24581940615835 H 0.0 **** 0.06
17233 H 57.88324666555948 2.8825298417877194 92.6666737472901 H 0.0 **** 0.06
17234 H 56.88648999098686 4.238398153300918 93.24759559247241 H 0.0 **** 0.06
17235 H 56.113016336067915 2.7160089398787566 92.74581431707861 H 0.0 **** 0.06
17236 C 3.209808482789933 92.56825587087455 39.09470651976623 C 0.0 **** -0.24
17237 H 2.488965524755475 93.37112082596606 38.93788485955454 H 0.0 **** 0.06
17238 H 4.118297150749618 92.78085703197925 38.53121668637396 H 0.0 **** 0.06
17239 H 2.781662432641242 91.62485736204144 38.75369920415368 H 0.0 **** 0.06
17240 H 3.447326691546193 92.49647387213398 40.155864910598396 H 0.0 **** 0.06
17241 C 40.840980719162644 87.44204402977394 78.76228095665684 C 0.0 **** -0.24
17242 H 39.81329057702368 87.08243080955802 78.71593455987497 H 0.0 **** 0.06
17243 H 40.86309666557747 88.51004181764974 78.54504300785032 H 0.0 **** 0.06
17244 H 41.44558300646685 86.9088387338883 78.02755449987768 H 0.0 **** 0.06
17245 H 41.243100759471645 87.26512286974935 79.75930805548478 H 0.0 **** 0.06
17246 C 52.24898050977929 72.91583247428298 76.96483528380105 C 0.0 **** -0.24
17247 H 52.76556340917883 72.06611968604852 77.41041912681715 H 0.0 **** 0.06
17248 H 52.07408092310775 72.71911115901042 75.90616883194798 H 0.0 **** 0.06
17249 H 52.860913833040435 73.8110643414359 77.07192489808989 H 0.0 **** 0.06
17250 H 51.294043915364966 73.06505959173239 77.46899605852008 H 0.0 **** 0.06
17251 C 30.687095344029842 57.0263496812471 30.121615457102905 C 0.0 **** -0.24
17252 H 30.533365554658786 57.889201573640776 29.472914053994856 H 0.0 **** 0.06
17253 H 29.72987832957395 56.703038409463716 30.52960329604889 H 0.0 **** 0.06
17254 H 31.356427785288076 57.30017372225814 30.93644251290189 H 0.0 **** 0.06
17255 H 31.13049721625876 56.21388015981711 29.545051660641718 H 0.0 **** 0.06
17256 C 72.11980218067144 77.06536358864747 92.03559512677106 C 0.0 **** -0.24
17257 H 72.28324806904114 76.05730278002153 91.6544566244406 H 0.0 **** 0.06
17258 H 73.01565107468268 77.40712694499155 92.55449521132817 H 0.0 **** 0.06
17259 H 71.27792682886094 77.05966367919189 92.72853751225728 H 0.0 **** 0.06
17260 H 71.90224390239153 77.73757286305027 91.20585855783025 H 0.0 **** 0.06
17261 C 78.53732635520686 93.00427237682145 15.586550605645044 C 0.0 **** -0.24
17262 H 78.79198842174887 93.24301360873172 16.618868646264588 H 0.0 **** 0.06
17263 H 77.57351668199851 92.493915899815 15.558426180116868 H 0.0 **** 0.06
17264 H 79.3043135260954 92.3572382457971 15.16324205550194 H 0.0 **** 0.06
17265 H 78.47720807684888 93.92484317956277 15.006006122638908 H 0.0 **** 0.06
17266 C 25.68051382923531 1.3992069940944987 95.5110946705738 C 0.0 **** -0.24
17267 H 25.42453808847361 0.43760700944511655 95.95468293092763 H 0.0 **** 0.06
17268 H 26.425221256323432 1.8979896400379204 96.13130546078368 H 0.0 **** 0.06
17269 H 24.785545516787952 2.0194779776735174 95.44829813350825 H 0.0 **** 0.06
17270 H 26.084800154381313 1.2418645240449138 94.51118036500881 H 0.0 **** 0.06
17271 C 19.23216358341739 77.78403661484577 3.43057795113765 C 0.0 **** -0.24
17272 H 20.193041780155284 78.19800713200436 3.1248882239177647 H 0.0 **** 0.06
17273 H 19.333166332925714 77.31662787885755 4.410673496821744 H 0.0 **** 0.06
17274 H 18.910194152912936 77.03855557249834 2.703156182741168 H 0.0 **** 0.06
17275 H 18.492252067675793 78.58295587602304 3.4835939010702077 H 0.0 **** 0.06
17276 C 72.51499048227467 68.4030861900799 50.029818102306 C 0.0 **** -0.24
17277 H 72.35979933379318 67.93379703945646 51.001013799270545 H 0.0 **** 0.06
17278 H 73.15581808642341 69.27745260021521 50.146381820096934 H 0.0 **** 0.06
17279 H 71.5538814539137 68.7093464790274 49.615892006002795 H 0.0 **** 0.06
17280 H 72.99067141970295 67.69128941573487 49.35466350121192 H 0.0 **** 0.06
17281 C 32.72030193989292 32.47434474138399 45.58492514302755 C 0.0 **** -0.24
17282 H 33.62624714366723 32.0203498224341 45.98636331249669 H 0.0 **** 0.06
17283 H 32.892087835437565 33.536146204430494 45.41101446524305 H 0.0 **** 0.06
17284 H 31.904375721998917 32.349546413097414 46.297932551520304 H 0.0 **** 0.06
17285 H 32.45762805901853 31.989089769473935 44.644834318598775 H 0.0 **** 0.06
17286 C 74.10182980349191 80.68860210254385 32.452642988514214 C 0.0 **** -0.24
17287 H 74.69789371535063 79.91537419699524 31.968515834750292 H 0.0 **** 0.06
17288 H 74.47745334237862 81.67068671088215 32.165226060559235 H 0.0 **** 0.06
17289 H 74.16996164551358 80.57503947513723 33.53413142831795 H 0.0 **** 0.06
17290 H 73.06154205103837 80.59224142831216 32.14141681509088 H 0.0 **** 0.06
17291 C 58.73076650461934 85.91083711268386 86.20886843568726 C 0.0 **** -0.24
17292 H 59.2901445854061 86.7208965379048 85.74190638805982 H 0.0 **** 0.06
17293 H 57.71241614873577 85.90117168644133 85.81877627382954 H 0.0 **** 0.06
17294 H 58.70534293917348 86.06203095979595 87.28811853583383 H 0.0 **** 0.06
17295 H 59.2141794328673 84.96000447675975 85.98735345112988 H 0.0 **** 0.06
17296 C 84.0255752783238 54.0910888054664 106.6230903075335 C 0.0 **** -0.24
17297 H 83.87617745725045 54.893073819488365 107.34546901712594 H 0.0 **** 0.06
17298 H 85.09303472720828 53.94442522930851 106.45815446720671 H 0.0 **** 0.06
17299 H 83.5441820021949 54.355795713385476 105.68134007445384 H 0.0 **** 0.06
17300 H 83.58786556028693 53.16912427020702 107.00780627466179 H 0.0 **** 0.06
17301 C 63.17010892688634 85.71984137501272 87.02044717643582 C 0.0 **** -0.24
17302 H 63.15323476245186 85.9086334848403 88.09374373352034 H 0.0 **** 0.06
17303 H 62.25787283603991 86.10874836116524 86.56909661018062 H 0.0 **** 0.06
17304 H 63.23521484243976 84.6457321917474 86.84186254792405 H 0.0 **** 0.06
17305 H 64.0344789147632 86.21452645994019 86.57846091358238 H 0.0 **** 0.06
17306 C 78.5358128846089 63.7065151608181 50.14890410984441 C 0.0 **** -0.24
17307 H 77.47403325967133 63.487597213480626 50.0354771702454 H 0.0 **** 0.06
17308 H 79.08827151026193 62.77401595813956 50.26846771357981 H 0.0 **** 0.06
17309 H 78.68548579863239 64.33368572408796 51.02788125507851 H 0.0 **** 0.06
17310 H 78.89507959025133 64.23162312828748 49.26273547113638 H 0.0 **** 0.06
17311 C 25.72235698132957 59.12080520175462 42.95920260792599 C 0.0 **** -0.24
17312 H 25.332393327325747 59.75473712703379 43.75595940917569 H 0.0 **** 0.06
17313 H 25.129871882858737 59.266272365421855 42.05608112827926 H 0.0 **** 0.06
17314 H 25.66595858565458 58.07632512714059 43.266279660781464 H 0.0 **** 0.06
17315 H 26.76018245936578 59.38533174047723 42.75977433506381 H 0.0 **** 0.06
17316 C 17.099129125394256 70.94119175739706 47.17701740066062 C 0.0 **** -0.24
17317 H 17.011516755658178 71.85300105040005 47.76745585987777 H 0.0 **** 0.06
17318 H 16.778022402765586 71.13798552221806 46.15427482211132 H 0.0 **** 0.06
17319 H 16.470285869919877 70.16423464990802 47.612781742491705 H 0.0 **** 0.06
17320 H 18.13747481725113 70.60803685581277 47.17388820145547 H 0.0 **** 0.06
17321 C 20.333320968409964 11.431746410866879 83.42942742843775 C 0.0 **** -0.24
17322 H 19.886407792690193 10.490533312270713 83.11032996212157 H 0.0 **** 0.06
17323 H 21.326455615673467 11.529686035301921 82.98983198032829 H 0.0 **** 0.06
17324 H 20.41277618180993 11.446122594893637 84.51613800263215 H 0.0 **** 0.06
17325 H 19.706802267900912 12.260742020578618 83.09934057237888 H 0.0 **** 0.06
17326 C 23.69621483407559 24.229563456297438 33.54528513036226 C 0.0 **** -0.24
17327 H 23.919812454957423 23.564144261725986 32.710531169412036 H 0.0 **** 0.06
17328 H 23.43203487337155 23.636778541008013 34.42076424429973 H 0.0 **** 0.06
17329 H 22.861732266008403 24.87782972496863 33.279344609927506 H 0.0 **** 0.06
17330 H 24.57344001796571 24.83773583953548 33.76800710444084 H 0.0 **** 0.06
17331 C 20.349258853230907 7.488594500576653 84.08552700770294 C 0.0 **** -0.24
17332 H 20.322508322326286 6.4456657558050665 83.77059252794393 H 0.0 **** 0.06
17333 H 21.17543962619726 7.998059118928808 83.58935783294928 H 0.0 **** 0.06
17334 H 20.48747816167233 7.537664516936303 85.16542850552065 H 0.0 **** 0.06
17335 H 19.410315458117765 7.973144544425466 83.81727847567072 H 0.0 **** 0.06
17336 C 88.73691799077343 54.68568232133288 66.20001942976964 C 0.0 **** -0.24
17337 H 89.70333380039554 54.64420295186696 66.70133928914072 H 0.0 **** 0.06
17338 H 88.58216594959586 55.68489298168913 65.79043102327245 H 0.0 **** 0.06
17339 H 87.9462497817797 54.46033677470666 66.91629236360728 H 0.0 **** 0.06
17340 H 88.71474265894145 53.95407618976594 65.39203585814465 H 0.0 **** 0.06
17341 C 79.32220126927788 75.06263534909473 86.96583484824558 C 0.0 **** -0.24
17342 H 79.56632424691114 74.05329780310225 87.29608530782579 H 0.0 **** 0.06
17343 H 78.71040030419843 75.55325378065831 87.7228182283146 H 0.0 **** 0.06
17344 H 78.76938630533155 75.01456391364326 86.02783247916605 H 0.0 **** 0.06
17345 H 80.241191766649 75.62970559950944 86.81823574704705 H 0.0 **** 0.06
17346 C 36.05882177494523 64.03783872953306 97.12609141957635 C 0.0 **** -0.24
17347 H 35.41243191516389 63.587875964530014 97.88031845074356 H 0.0 **** 0.06
17348 H 35.95521372989444 63.49364571028255 96.1873992259152 H 0.0 **** 0.06
17349 H 37.095328282674316 63.99058662329992 97.46125890398851 H 0.0 **** 0.06
17350 H 35.77213010690194 65.07936485726034 96.97678645201667 H 0.0 **** 0.06
17351 C 44.16061375679863 37.07177809004759 19.293576770857598 C 0.0 **** -0.24
17352 H 43.63542278312423 36.73428205036652 18.399791789074726 H 0.0 **** 0.06
17353 H 43.436300543857385 37.31020505708108 20.072651012166432 H 0.0 **** 0.06
17354 H 44.74501703148568 37.960871194097194 19.05694209913092 H 0.0 **** 0.06
17355 H 44.82609796694205 36.282582105108474 19.644512955026443 H 0.0 **** 0.06
17356 C 91.35486918356023 80.3707869969603 106.63937889781253 C 0.0 **** -0.24
17357 H 90.87733546570423 80.8403251271638 105.77919565310745 H 0.0 **** 0.06
17358 H 91.45280800048556 79.29988402909986 106.45922461762268 H 0.0 **** 0.06
17359 H 90.74484225382102 80.53590028174769 107.52706601743826 H 0.0 **** 0.06
17360 H 92.34198836728662 80.80724330106273 106.78986242935697 H 0.0 **** 0.06
17361 C 95.83969226234171 94.78709952530633 20.170506784465644 C 0.0 **** -0.24
17362 H 95.36471484907918 95.6002941444815 20.71860772290728 H 0.0 **** 0.06
17363 H 95.6424663880033 94.90370513398432 19.104668235529743 H 0.0 **** 0.06
17364 H 95.43501238564977 93.83388092793203 20.512613889563283 H 0.0 **** 0.06
17365 H 96.91435705341723 94.80910175028609 20.34717349606281 H 0.0 **** 0.06
17366 C 28.819405959616283 68.59757744506646 98.7007491870926 C 0.0 **** -0.24
17367 H 29.791379344709128 68.11326002269465 98.7801278047441 H 0.0 **** 0.06
17368 H 28.957092999854225 69.65857202407284 98.49264228259379 H 0.0 **** 0.06
17369 H 28.27664587504864 68.47856165538337 99.63904630854574 H 0.0 **** 0.06
17370 H 28.250424561620267 68.13927807811052 97.89169258976416 H 0.0 **** 0.06
17371 C 50.464466050366084 38.0428796076456 37.38696233829917 C 0.0 **** -0.24
17372 H 50.64628866894028 37.4440773863397 36.49436323785764 H 0.0 **** 0.06
17373 H 50.50264315794278 37.40248725183392 38.268432058080464 H 0.0 **** 0.06
17374 H 49.48196480624003 38.50856377175762 37.317613797197566 H 0.0 **** 0.06
17375 H 51.2289192348101 38.816470825670194 37.46701054767402 H 0.0 **** 0.06
17376 C 93.2221265829071 95.86187063663397 86.38506453945698 C 0.0 **** -0.24
17377 H 94.08992280237362 95.43512074004859 85.88247231918363 H 0.0 **** 0.06
17378 H 92.31224314795065 95.42680364926252 85.97194162003554 H 0.0 **** 0.06
17379 H 93.21022177967996 96.94084568342406 86.23575022923193 H 0.0 **** 0.06
17380 H 93.27746733052288 95.64260388125454 87.45174782802215 H 0.0 **** 0.06
17381 C 86.4978748220353 8.879203237392609 91.52306493709378 C 0.0 **** -0.24
17382 H 85.74982771494979 9.534718940900568 91.07802071437052 H 0.0 **** 0.06
17383 H 87.39946415969126 9.452274588647086 91.74140100522564 H 0.0 **** 0.06
17384 H 86.73749657004365 8.075145206924876 90.82758180517118 H 0.0 **** 0.06
17385 H 86.10553067590999 8.455119917046233 92.44752106334315 H 0.0 **** 0.06
17386 C 80.00030943156139 1.8004704712064479 58.59343807562763 C 0.0 **** -0.24
17387 H 78.94235895244819 1.987927105763494 58.77212612640818 H 0.0 **** 0.06
17388 H 80.26902952904643 2.1528015551027773 57.597140397657114 H 0.0 **** 0.06
17389 H 80.19716999796665 0.7305394122125417 58.66615798718192 H 0.0 **** 0.06
17390 H 80.59395954416786 2.3301834348600545 59.33790861774145 H 0.0 **** 0.06
17391 C 83.61036325264118 4.1078575116526395 53.41138771469451 C 0.0 **** -0.24
17392 H 84.66315735117107 4.360433034639158 53.279418146774375 H 0.0 **** 0.06
17393 H 83.26077146578811 4.497742280528129 54.36785371019177 H 0.0 **** 0.06
17394 H 83.49259212444875 3.024219969678569 53.39503655838882 H 0.0 **** 0.06
17395 H 83.02713498144249 4.549012894723447 52.60362575730834 H 0.0 **** 0.06
17396 C 105.50873481423173 28.18717617072801 14.783088308947185 C 0.0 **** -0.24
17397 H 104.52399510252963 28.005376458630764 15.213763684021018 H 0.0 **** 0.06
17398 H 105.55083876360834 27.759340765001213 13.781033984887301 H 0.0 **** 0.06
17399 H 106.26996055106656 27.72329861087576 15.409609379332949 H 0.0 **** 0.06
17400 H 105.68793375560512 29.26096585084268 14.728132216885768 H 0.0 **** 0.06
17401 C 63.906904628077854 89.3114081201666 102.01189315708679 C 0.0 **** -0.24
17402 H 63.850298694153025 90.15779367419155 102.69739737536996 H 0.0 **** 0.06
17403 H 62.93694500376682 88.8176165054086 101.96562421116099 H 0.0 **** 0.06
17404 H 64.65794262839655 88.60510237187547 102.36892666393656 H 0.0 **** 0.06
17405 H 64.18357982378308 89.66572004511102 101.01978654838328 H 0.0 **** 0.06
17406 C 20.98717931076999 78.43061825010327 32.98616388490345 C 0.0 **** -0.24
17407 H 20.117333309507757 77.89696867029082 33.36874688589032 H 0.0 **** 0.06
17408 H 21.521378975130972 77.79551979646044 32.280798521995706 H 0.0 **** 0.06
17409 H 21.646271120585197 78.69056890371272 33.81469714730403 H 0.0 **** 0.06
17410 H 20.661516990818853 79.34067860831887 32.48253217799194 H 0.0 **** 0.06
17411 C 36.54399251697285 48.37672650398454 86.14308817445226 C 0.0 **** -0.24
17412 H 37.467974735672094 48.201815876684634 86.69325159495105 H 0.0 **** 0.06
17413 H 35.780419921452534 47.67716818760505 86.48455237901402 H 0.0 **** 0.06
17414 H 36.7219705595152 48.22968931594855 85.07830249592939 H 0.0 **** 0.06
17415 H 36.2055432988258 49.39831466235438 86.31797527998759 H 0.0 **** 0.06
17416 C 76.874870422161 98.79188968219766 17.64726600813171 C 0.0 **** -0.24
17417 H 76.89944580953724 99.8363161183519 17.33654077346472 H 0.0 **** 0.06
17418 H 77.21632197213307 98.16063670745318 16.827278692338496 H 0.0 **** 0.06
17419 H 75.85405894398329 98.51717662572652 17.91636163111758 H 0.0 **** 0.06
17420 H 77.52722440517715 98.65321997321166 18.50910397139836 H 0.0 **** 0.06
17421 C 19.519705774720677 10.503496540073854 64.77543547949419 C 0.0 **** -0.24
17422 H 18.841664145330782 9.937292184602825 65.41477961948647 H 0.0 **** 0.06
17423 H 19.44453990683776 10.136094496056785 63.751748242521515 H 0.0 **** 0.06
17424 H 20.542097845882708 10.380464945290726 65.13207306055597 H 0.0 **** 0.06
17425 H 19.24931399071896 11.559129379623073 64.80473239038876 H 0.0 **** 0.06
17426 C 78.79663018815245 60.00372897155927 100.80041927184445 C 0.0 **** -0.24
17427 H 79.28618068178848 60.879058909724904 100.37459010550381 H 0.0 **** 0.06
17428 H 77.86326811811206 59.81635686263621 100.26946668449224 H 0.0 **** 0.06
17429 H 78.58608627895163 60.182897647112725 101.85470127767482 H 0.0 **** 0.06
17430 H 79.45094337927068 59.13800465148273 100.70273962827747 H 0.0 **** 0.06
17431 C 104.38666426527101 6.929607193177677 1.267465946283835 C 0.0 **** -0.24
17432 H 103.96567061340264 6.769039618113004 0.27501085875167064 H 0.0 **** 0.06
17433 H 103.69168074633635 7.519515479627026 1.8659622949873267 H 0.0 **** 0.06
17434 H 105.33325862520539 7.463722115304533 1.178403451995564 H 0.0 **** 0.06
17435 H 104.55672132464755 5.967234581474193 1.749876814911886 H 0.0 **** 0.06
17436 C 6.775037333268159 70.46162588377126 23.808711804535477 C 0.0 **** -0.24
17437 H 6.722020938683713 70.13258810717284 22.770685247777124 H 0.0 **** 0.06
17438 H 5.88228551436147 70.12989344677155 24.33997872646904 H 0.0 **** 0.06
17439 H 6.834856649690792 71.54974888887435 23.84275166607432 H 0.0 **** 0.06
17440 H 7.6595754972624945 70.03432391754367 24.281345897716704 H 0.0 **** 0.06
17441 C 24.617118417322445 59.50927188388454 106.00893520415342 C 0.0 **** -0.24
17442 H 25.616671308337086 59.73040139881101 106.38338742849265 H 0.0 **** 0.06
17443 H 23.89216556825244 59.632773482654784 106.8131729838002 H 0.0 **** 0.06
17444 H 24.585000053479312 58.482591575253 105.64414394156813 H 0.0 **** 0.06
17445 H 24.37578036726279 60.19179121744847 105.1943500396566 H 0.0 **** 0.06
17446 C 14.53965229980756 10.833823163243709 40.430260645727856 C 0.0 **** -0.24
17447 H 14.113510406127862 11.83590282852673 40.47118872217686 H 0.0 **** 0.06
17448 H 13.953164541941014 10.16433492940352 41.06049661796669 H 0.0 **** 0.06
17449 H 15.568952551664669 10.860830535584997 40.787280644995064 H 0.0 **** 0.06
17450 H 14.522102715211616 10.473358872179007 39.40138492553075 H 0.0 **** 0.06
17451 C 64.1141941276066 27.73471135828123 7.130614417769621 C 0.0 **** -0.24
17452 H 64.6279214875089 28.455161528444933 7.76709258527562 H 0.0 **** 0.06
17453 H 64.34208551625653 27.946630335321345 6.085954390772031 H 0.0 **** 0.06
17454 H 63.03848212715815 27.809674527720574 7.291701199471362 H 0.0 **** 0.06
17455 H 64.44905184010543 26.727849080825308 7.3788025441611325 H 0.0 **** 0.06
17456 C 61.98774796908987 88.20530115639428 26.566146334345888 C 0.0 **** -0.24
17457 H 61.22134345501502 88.97441982032666 26.4654668788514 H 0.0 **** 0.06
17458 H 61.59821062362295 87.25543742087658 26.19960130513047 H 0.0 **** 0.06
17459 H 62.26628565757642 88.10531350569241 27.615032847056824 H 0.0 **** 0.06
17460 H 62.86435891862095 88.4873741116968 25.982593578610135 H 0.0 **** 0.06
17461 C 54.11993334029285 8.202620970983645 55.004310308565834 C 0.0 **** -0.24
17462 H 55.20393910890736 8.251723333284644 55.1029060355001 H 0.0 **** 0.06
17463 H 53.68280311320792 7.883526724379891 55.95091042102621 H 0.0 **** 0.06
17464 H 53.85832941187788 7.487705756901306 54.22369813526484 H 0.0 **** 0.06
17465 H 53.73425141659172 9.186617231442739 54.73977209072473 H 0.0 **** 0.06
17466 C 59.56472588577674 64.01659367894234 26.419824207668057 C 0.0 **** -0.24
17467 H 60.19046028599297 63.16261283385683 26.161766360497722 H 0.0 **** 0.06
17468 H 58.676964557244276 63.66865634149207 26.948055354922218 H 0.0 **** 0.06
17469 H 59.265632733428276 64.53650872469858 25.510202145360665 H 0.0 **** 0.06
17470 H 60.125408394826195 64.69699534028531 27.06107410392181 H 0.0 **** 0.06
17471 C 3.404146334861622 17.2870906580643 89.19499944679116 C 0.0 **** -0.24
17472 H 3.9135574338652646 18.250195757366555 89.16966983506371 H 0.0 **** 0.06
17473 H 4.141569470781576 16.48491813216532 89.15407141803112 H 0.0 **** 0.06
17474 H 2.7337073550856985 17.208328005542626 88.33874670305948 H 0.0 **** 0.06
17475 H 2.8288966380131058 17.204582531281147 90.11675259587666 H 0.0 **** 0.06
17476 C 87.08857016651467 80.82139192624987 51.15824728714216 C 0.0 **** -0.24
17477 H 87.14871574117552 81.35769329191531 52.10547063945438 H 0.0 **** 0.06
17478 H 86.04358171519328 80.71649025576764 50.8656511369154 H 0.0 **** 0.06
17479 H 87.53507639622404 79.83271950391315 51.272000584624664 H 0.0 **** 0.06
17480 H 87.62760809313579 81.37667095684678 50.391105196696344 H 0.0 **** 0.06
17481 C 1.398832124741368 54.231755379165236 83.04181202348899 C 0.0 **** -0.24
17482 H 1.4548850659044845 55.30243709107296 83.23828962257862 H 0.0 **** 0.06
17483 H 0.43218789572057625 53.85290474047602 83.37346067329374 H 0.0 **** 0.06
17484 H 2.195151835713448 53.72084688714696 83.5832482130139 H 0.0 **** 0.06
17485 H 1.512778302502137 54.05279157447836 81.97248936449316 H 0.0 **** 0.06
17486 C 22.076044502251023 3.105076857042974 78.27844321627825 C 0.0 **** -0.24
17487 H 21.860980975240665 2.217796313256059 77.68384454865455 H 0.0 **** 0.06
17488 H 22.71587865340004 3.7791968529089246 77.70795373183671 H 0.0 **** 0.06
17489 H 22.582981592619575 2.8125034883263567 79.19779478302738 H 0.0 **** 0.06
17490 H 21.142451526851488 3.6123727127354215 78.52425988932853 H 0.0 **** 0.06
17491 C 4.726056341496019 69.02712942429972 73.30458112379473 C 0.0 **** -0.24
17492 H 4.633126516069552 68.145568531019 72.67027587593746 H 0.0 **** 0.06
17493 H 5.3864919724336175 69.75018750989727 72.82713328769717 H 0.0 **** 0.06
17494 H 5.140887744908184 68.7374909919408 74.27051343709235 H 0.0 **** 0.06
17495 H 3.742667384523571 69.47438122785834 73.45185203684991 H 0.0 **** 0.06
17496 C 14.797749231442822 43.253921121911695 44.70884571182941 C 0.0 **** -0.24
17497 H 14.381300053296911 43.43172566598089 43.717422831819476 H 0.0 **** 0.06
17498 H 15.885608798423178 43.226120863681956 44.64644045894565 H 0.0 **** 0.06
17499 H 14.429993975546722 42.30235589784496 45.09190624698317 H 0.0 **** 0.06
17500 H 14.492986448981839 44.057621593863615 45.38005578472615 H 0.0 **** 0.06
17501 C 51.42275295903745 33.49508918005759 96.70817756409619 C 0.0 **** -0.24
17502 H 51.2220309732386 32.546975464566515 97.20689067396017 H 0.0 **** 0.06
17503 H 52.387586775672226 33.8824251288234 97.03863538283474 H 0.0 **** 0.06
17504 H 50.63944037271581 34.20971757174928 96.95807013590652 H 0.0 **** 0.06
17505 H 51.443742153050444 33.33991916141028 95.62936087978679 H 0.0 **** 0.06
17506 C 67.70347768037283 24.526473065204897 52.6096542563223 C 0.0 **** -0.24
17507 H 66.67783046747326 24.159801258612276 52.66341616574175 H 0.0 **** 0.06
17508 H 67.70213944001904 25.556963794145076 52.25451657756395 H 0.0 **** 0.06
17509 H 68.27536046702073 23.904283575034952 51.92185197056824 H 0.0 **** 0.06
17510 H 68.15547430091235 24.48367323141045 53.59982387102883 H 0.0 **** 0.06
17511 C 3.7775756075272398 68.25221838948542 102.51589215221804 C 0.0 **** -0.24
17512 H 3.8689315793834567 68.7350550870355 101.54284974525547 H 0.0 **** 0.06
17513 H 2.9450244044237905 67.54914553968243 102.49569912830339 H 0.0 **** 0.06
17514 H 3.5983771576759835 69.00777957208172 103.28064303295321 H 0.0 **** 0.06
17515 H 4.700253165069256 67.71783283356211 102.74299769380718 H 0.0 **** 0.06
17516 C 7.6875979501825675 99.9784944875058 6.0948488373491045 C 0.0 **** -0.24
17517 H 7.691627754122246 99.6389705307295 7.130021718675138 H 0.0 **** 0.06
17518 H 6.661229318466221 100.01450129920202 5.7286771819455 H 0.0 **** 0.06
17519 H 8.26724482296601 99.28657702208703 5.483280802483648 H 0.0 **** 0.06
17520 H 8.129233711419145 100.97334847577409 6.036675764768049 H 0.0 **** 0.06
17521 C 49.28399386663742 44.9858508976834 101.02558694227878 C 0.0 **** -0.24
17522 H 48.797445092439574 44.728932551518305 101.96677766834615 H 0.0 **** 0.06
17523 H 49.99405757413791 45.796089675017406 101.1921743886389 H 0.0 **** 0.06
17524 H 48.532166406908715 45.30521142718885 100.30343110048783 H 0.0 **** 0.06
17525 H 49.81022548968204 44.11358912700548 100.63926151058006 H 0.0 **** 0.06
17526 C 49.983157025215064 74.72806784121477 89.21947686857328 C 0.0 **** -0.24
17527 H 49.99255798337626 73.8447045384338 88.57978891775824 H 0.0 **** 0.06
17528 H 49.12812893912306 75.35332231777579 88.96279124441749 H 0.0 **** 0.06
17529 H 50.90451466409587 75.29243223736626 89.07112021244669 H 0.0 **** 0.06
17530 H 49.90976118546982 74.42042203293965 90.2618370477013 H 0.0 **** 0.06
17531 C 63.180922785595214 47.35049149840844 62.07727945795213 C 0.0 **** -0.24
17532 H 64.21648174681312 47.20198869749342 62.38193865131133 H 0.0 **** 0.06
17533 H 62.68969401786232 46.38197558458198 61.97667134810786 H 0.0 **** 0.06
17534 H 63.15540458571273 47.87263062339732 61.12027407099771 H 0.0 **** 0.06
17535 H 62.66211150408233 47.9444593139414 62.82982301412949 H 0.0 **** 0.06
17536 C 92.64981603690339 65.9697452851502 61.028452829447076 C 0.0 **** -0.24
17537 H 93.25906688440854 66.55100375428813 60.336296268151074 H 0.0 **** 0.06
17538 H 93.25650354138752 65.67300096437131 61.88492516380242 H 0.0 **** 0.06
17539 H 92.27488024566135 65.08094274831822 60.523122433490755 H 0.0 **** 0.06
17540 H 91.81064428765613 66.57532266765972 61.370460880707725 H 0.0 **** 0.06
17541 C 26.77975938841587 46.5011870698504 35.832481619001555 C 0.0 **** -0.24
17542 H 25.737725201667516 46.18265930903286 35.861593959292236 H 0.0 **** 0.06
17543 H 26.943641923063993 47.27624256877047 36.58053786832306 H 0.0 **** 0.06
17544 H 27.01064646769916 46.895820288905185 34.8427869658683 H 0.0 **** 0.06
17545 H 27.4258373928902 45.64925436906469 36.04300849678157 H 0.0 **** 0.06
17546 C 7.5016997059396715 77.42936449875415 3.998724967480001 C 0.0 **** -0.24
17547 H 6.9099451249975345 76.98458959480736 4.798816530967926 H 0.0 **** 0.06
17548 H 7.210739485809313 78.47158851953142 3.867625971103692 H 0.0 **** 0.06
17549 H 7.326653920641633 76.883470137111 3.0721992097707727 H 0.0 **** 0.06
17550 H 8.559872232923937 77.37594108332667 4.257415155950071 H 0.0 **** 0.06
17551 C 16.173997616328183 58.93252740930518 1.0396452486325378 C 0.0 **** -0.24
17552 H 15.222246269495475 59.24934204538056 1.4657831996659958 H 0.0 **** 0.06
17553 H 16.938368061770078 58.934365545765445 1.8163350988934868 H 0.0 **** 0.06
17554 H 16.46275482748125 59.61916508388265 0.24392627791548893 H 0.0 **** 0.06
17555 H 16.072209163810438 57.92649113790185 0.6314077123481363 H 0.0 **** 0.06
17556 C 46.41953997727157 56.04714239775075 34.02350676226919 C 0.0 **** -0.24
17557 H 47.03675928007246 55.163429849514785 34.18662693464816 H 0.0 **** 0.06
17558 H 46.87401151324397 56.90487134112527 34.52107230448621 H 0.0 **** 0.06
17559 H 45.423931756974724 55.87524491353011 34.43283333661526 H 0.0 **** 0.06
17560 H 46.343935927671936 56.24416882664252 32.954514581108015 H 0.0 **** 0.06
17561 C 97.5202137064642 36.34983646199208 44.41146525194725 C 0.0 **** -0.24
17562 H 97.28771374856527 37.278397586635535 44.933007889917775 H 0.0 **** 0.06
17563 H 97.07130628020236 35.51174949721519 44.9450166474021 H 0.0 **** 0.06
17564 H 98.60199536908277 36.217090662290644 44.37187035360603 H 0.0 **** 0.06
17565 H 97.12136074872622 36.39185772581189 43.39853969599565 H 0.0 **** 0.06
17566 C 70.77257350190715 72.18693597954679 45.1668764837878 C 0.0 **** -0.24
17567 H 71.06028735821229 71.1970635521242 45.520644778972155 H 0.0 **** 0.06
17568 H 70.94841134657203 72.91924854807698 45.95440554953802 H 0.0 **** 0.06
17569 H 69.71479543053537 72.18394394583359 44.90344278082722 H 0.0 **** 0.06
17570 H 71.36487431320317 72.44626554396288 44.289906364965816 H 0.0 **** 0.06
17571 C 91.64693391744062 36.649434455661776 21.960908279137726 C 0.0 **** -0.24
17572 H 91.63476667349242 37.50049163662942 21.279064896885984 H 0.0 **** 0.06
17573 H 91.50055863155225 35.72914265005073 21.395897701960394 H 0.0 **** 0.06
17574 H 90.84600122137364 36.7595091164319 22.691661363293775 H 0.0 **** 0.06
17575 H 92.60696699850865 36.61139225149145 22.476081065842152 H 0.0 **** 0.06
17576 C 25.746640872953776 93.52755988959173 93.41119194408822 C 0.0 **** -0.24
17577 H 25.842877701607023 94.1806969734345 92.54438222527352 H 0.0 **** 0.06
17578 H 26.586586293585114 93.69468036213304 94.08632911387043 H 0.0 **** 0.06
17579 H 25.744726597444412 92.48719648412079 93.08378685219104 H 0.0 **** 0.06
17580 H 24.81381775519941 93.74678337107748 93.92990358414373 H 0.0 **** 0.06
17581 C 17.734828728855735 9.699009449998954 21.67573883719541 C 0.0 **** -0.24
17582 H 17.462697755555755 10.442075313925614 22.425222362335603 H 0.0 **** 0.06
17583 H 17.23127619753301 9.928124494028594 20.73668141500309 H 0.0 **** 0.06
17584 H 17.43120282133201 8.709789441383776 22.01862482396217 H 0.0 **** 0.06
17585 H 18.81364281879491 9.714657103019505 21.52333154995887 H 0.0 **** 0.06
17586 C 89.00944790284981 27.181661751660396 73.29643721081845 C 0.0 **** -0.24
17587 H 88.7620851738115 27.54930643203843 74.29225535286946 H 0.0 **** 0.06
17588 H 90.09142689505745 27.173794348920136 73.17057934817831 H 0.0 **** 0.06
17589 H 88.5597202064778 27.83413134401262 72.54704532098935 H 0.0 **** 0.06
17590 H 88.62125321961526 26.170480786328515 73.176835278679 H 0.0 **** 0.06
17591 C 26.621404292572635 53.73297196593734 31.8769621239785 C 0.0 **** -0.24
17592 H 25.6594234896817 53.284867987811566 31.630384719548772 H 0.0 **** 0.06
17593 H 26.508331045764066 54.81503471149722 31.955869945297536 H 0.0 **** 0.06
17594 H 27.34248174249609 53.49902568193576 31.093540034722423 H 0.0 **** 0.06
17595 H 26.975229779262918 53.33376436290919 32.8269007896387 H 0.0 **** 0.06
17596 C 7.67364953204601 85.97801588351876 93.32065741181319 C 0.0 **** -0.24
17597 H 8.064822182008232 84.96911553766984 93.45030593289626 H 0.0 **** 0.06
17598 H 6.625152720664568 86.00114575174109 93.61962598275932 H 0.0 **** 0.06
17599 H 7.759431672720176 86.27032412052199 92.27464451852602 H 0.0 **** 0.06
17600 H 8.243468867607715 86.67045556014932 93.94050008436291 H 0.0 **** 0.06
17601 C 60.43596452066191 89.67777147890942 0.48473552358939287 C 0.0 **** -0.24
17602 H 61.04146173055835 88.86448033734663 0.08512654069730274 H 0.0 **** 0.06
17603 H 59.62452236882942 89.90075911192733 -0.2086863524347109 H 0.0 **** 0.06
17604 H 61.05753159018474 90.5632956484013 0.6141379619459855 H 0.0 **** 0.06
17605 H 60.0206428058147 89.38162436660778 1.4481370386132824 H 0.0 **** 0.06
17606 C 1.78996723353022 3.084192208534091 13.799479226717494 C 0.0 **** -0.24
17607 H 0.732951697915297 2.9226347022177492 14.00838587395549 H 0.0 **** 0.06
17608 H 1.8936307768868312 3.6988987362088324 12.905329651759303 H 0.0 **** 0.06
17609 H 2.278754746833193 2.123512832602273 13.638866063168223 H 0.0 **** 0.06
17610 H 2.2538682649291477 3.590654310216962 14.645982438684598 H 0.0 **** 0.06
17611 C 15.814586107499082 53.41346140092679 74.601742864735 C 0.0 **** -0.24
17612 H 15.206762836446842 52.900948281096134 73.85681210852766 H 0.0 **** 0.06
17613 H 16.459980563524283 52.69186798981474 75.10230418782578 H 0.0 **** 0.06
17614 H 15.163996141091445 53.890457730465556 75.33448080277626 H 0.0 **** 0.06
17615 H 16.42742522528536 54.17090096700463 74.1116833902575 H 0.0 **** 0.06
17616 C 43.36491246686171 95.39167375038537 28.751265330189142 C 0.0 **** -0.24
17617 H 44.3836993792311 95.15849465476154 28.44184580765534 H 0.0 **** 0.06
17618 H 43.0927186314253 94.7675037652927 29.602675968371358 H 0.0 **** 0.06
17619 H 42.68049339848773 95.19962395143654 27.925464457079585 H 0.0 **** 0.06
17620 H 43.304233152169076 96.44184324951934 29.036548948607418 H 0.0 **** 0.06
17621 C 93.20682971362905 51.99752647973037 78.9017595234289 C 0.0 **** -0.24
17622 H 92.86526855751221 51.17141472770257 79.52476274826921 H 0.0 **** 0.06
17623 H 94.01087673127853 51.654563035158134 78.25124577364235 H 0.0 **** 0.06
17624 H 93.57145971664247 52.80415160873207 79.53705278462749 H 0.0 **** 0.06
17625 H 92.37732254734132 52.359973553987516 78.29450777051667 H 0.0 **** 0.06
17626 C 103.96647711814632 79.42349509283896 87.22072850568505 C 0.0 **** -0.24
17627 H 103.82075667563109 78.74758028463846 88.06342562683716 H 0.0 **** 0.06
17628 H 104.92226691353693 79.20612791900052 86.74313964322555 H 0.0 **** 0.06
17629 H 103.96242093189599 80.45357315805501 87.57642417742024 H 0.0 **** 0.06
17630 H 103.16079378319785 79.28472919651347 86.49981859687534 H 0.0 **** 0.06
17631 C 17.17501617219626 37.694844726455585 34.88320528779434 C 0.0 **** -0.24
17632 H 18.048550604002322 37.16680601442772 34.499496453965804 H 0.0 **** 0.06
17633 H 17.145335026676225 37.60388281989583 35.96948228597864 H 0.0 **** 0.06
17634 H 16.27178617180011 37.26137306166822 34.4563909397189 H 0.0 **** 0.06
17635 H 17.238408367253836 38.74751460361904 34.608366704964595 H 0.0 **** 0.06
17636 C 45.6929614900758 34.54434954507104 103.1954354423569 C 0.0 **** -0.24
17637 H 46.428394801985824 35.25298519389321 102.81773588339733 H 0.0 **** 0.06
17638 H 46.11778513109359 33.99214389639667 104.03407572965372 H 0.0 **** 0.06
17639 H 45.41850430902432 33.847519814357724 102.40298523885161 H 0.0 **** 0.06
17640 H 44.805604780235996 35.08399485464429 103.52702817188744 H 0.0 **** 0.06
17641 C 88.38683765548187 28.94344426370202 61.793636449962094 C 0.0 **** -0.24
17642 H 89.1748916479116 29.696171454883014 61.78261956980208 H 0.0 **** 0.06
17643 H 88.77277011904843 28.008073818832397 61.3880825294583 H 0.0 **** 0.06
17644 H 87.54952355061826 29.285816379761386 61.185504776037874 H 0.0 **** 0.06
17645 H 88.05034562225512 28.784697651132525 62.81828680133981 H 0.0 **** 0.06
17646 C 0.16420613445537535 21.661282060663545 105.69231305410095 C 0.0 **** -0.24
17647 H -0.7825412327441872 21.96917734991005 106.13548186438229 H 0.0 **** 0.06
17648 H 0.41514710329718074 22.33055837732523 104.86997279282132 H 0.0 **** 0.06
17649 H 0.07516202361264712 20.641374281446286 105.31675476925362 H 0.0 **** 0.06
17650 H 0.9489357650219574 21.70226163113559 106.44799143056447 H 0.0 **** 0.06
17651 C 85.5801984835444 6.272995519432811 36.54029752251682 C 0.0 **** -0.24
17652 H 84.58831132719894 6.452577954886095 36.12830405106422 H 0.0 **** 0.06
17653 H 86.06664653842921 7.2263380955870105 36.745718823125856 H 0.0 **** 0.06
17654 H 86.17555578083687 5.7089384640258345 35.82193475931854 H 0.0 **** 0.06
17655 H 85.49197949203693 5.702723892853442 37.465610139455066 H 0.0 **** 0.06
17656 C 22.476658712770927 79.9753532502398 79.15216943292039 C 0.0 **** -0.24
17657 H 21.65082413727322 79.53531333466293 79.7108355384343 H 0.0 **** 0.06
17658 H 22.496297575513495 79.55860978600461 78.14490137894788 H 0.0 **** 0.06
17659 H 23.416473772984034 79.75035480395164 79.65704574458346 H 0.0 **** 0.06
17660 H 22.342684082372216 81.05500066626226 79.09704326131121 H 0.0 **** 0.06
17661 C 6.07203873276066 22.310294175687602 53.42200799904023 C 0.0 **** -0.24
17662 H 5.422317845163718 21.736266141031052 52.76010289450281 H 0.0 **** 0.06
17663 H 7.103211932177544 22.232641593535874 53.07494648473599 H 0.0 **** 0.06
17664 H 5.99842499460479 21.915362574477314 54.434984666088496 H 0.0 **** 0.06
17665 H 5.763546884540375 23.35546482929371 53.41460740971584 H 0.0 **** 0.06
17666 C 84.65991377670926 22.13029542316218 14.609302083286536 C 0.0 **** -0.24
17667 H 83.613099019869 22.06560819563927 14.312687637672113 H 0.0 **** 0.06
17668 H 85.293055751265 21.815290227459457 13.779250446855798 H 0.0 **** 0.06
17669 H 84.83457422289644 21.47956852581993 15.466626397776764 H 0.0 **** 0.06
17670 H 84.89874014549852 23.15838680762718 14.879383043609366 H 0.0 **** 0.06
17671 C 76.89155849940887 23.744660804638904 80.66046528891505 C 0.0 **** -0.24
17672 H 77.4103813564879 23.02241291998407 80.03078480869735 H 0.0 **** 0.06
17673 H 76.7069262817508 24.656355930301203 80.09115104452653 H 0.0 **** 0.06
17674 H 77.50806321370796 23.978117099520144 81.5293466783148 H 0.0 **** 0.06
17675 H 75.94251216973936 23.32397961830374 80.991737199357 H 0.0 **** 0.06
17676 C 7.7434249181706605 94.96538299045204 56.50034708166094 C 0.0 **** -0.24
17677 H 7.75989081852623 94.17859357701758 57.25553121139198 H 0.0 **** 0.06
17678 H 8.706752421710803 94.9979878143431 55.990107124628 H 0.0 **** 0.06
17679 H 7.554335190619838 95.92473629772331 56.97999479124168 H 0.0 **** 0.06
17680 H 6.955748940462286 94.75856940976189 55.776817303627034 H 0.0 **** 0.06
17681 C 104.10544058894509 59.30471116455024 67.90579858241351 C 0.0 **** -0.24
17682 H 104.41723407146135 59.86394310266252 67.02305443990933 H 0.0 **** 0.06
17683 H 103.06365967303987 59.00393137160546 67.79574524630465 H 0.0 **** 0.06
17684 H 104.21207845044486 59.93311021743972 68.78946348433085 H 0.0 **** 0.06
17685 H 104.73131426467752 58.41819078381053 68.01168766677701 H 0.0 **** 0.06
17686 C 46.68292364527039 55.59515201890065 62.93770157691134 C 0.0 **** -0.24
17687 H 46.294120143320356 56.452386720440614 62.38827624010415 H 0.0 **** 0.06
17688 H 47.38622836586438 55.0490031869729 62.30789470306527 H 0.0 **** 0.06
17689 H 45.85902796129369 54.93803364072568 63.217415860815464 H 0.0 **** 0.06
17690 H 47.193648630651126 55.940856071200926 63.83687032608151 H 0.0 **** 0.06
17691 C 43.936567482135956 3.6862774503476743 102.08970175737795 C 0.0 **** -0.24
17692 H 43.41055500414609 4.564450214322516 102.46578583407603 H 0.0 **** 0.06
17693 H 44.68060917085006 3.3698365240783605 102.82107774674813 H 0.0 **** 0.06
17694 H 44.43122947038614 3.93339330049354 101.1514294676968 H 0.0 **** 0.06
17695 H 43.22322836035846 2.879871744718601 101.92392246272476 H 0.0 **** 0.06
17696 C 48.640335399429354 18.512465052373898 39.63928523377177 C 0.0 **** -0.24
17697 H 48.25850817872512 18.575349614186266 38.62018699408503 H 0.0 **** 0.06
17698 H 47.904478409039086 18.017866620971546 40.27268917462948 H 0.0 **** 0.06
17699 H 48.83123772655029 19.516919284423096 40.017735662815824 H 0.0 **** 0.06
17700 H 49.56861642620457 17.94061980148109 39.644089480516925 H 0.0 **** 0.06
17701 C 63.292530780355236 46.985806693714814 68.04831131887603 C 0.0 **** -0.24
17702 H 62.81837311236578 47.457279098682555 68.90949017015939 H 0.0 **** 0.06
17703 H 63.45409824290087 47.73130883292467 67.26974197692539 H 0.0 **** 0.06
17704 H 62.64723921328695 46.19473173241626 67.66634285648297 H 0.0 **** 0.06
17705 H 64.24990086983328 46.56021847912565 68.34847106923237 H 0.0 **** 0.06
17706 C 8.175252743705585 4.402626526070719 55.89025602830918 C 0.0 **** -0.24
17707 H 7.72154023051479 4.172535410150999 56.854506391445284 H 0.0 **** 0.06
17708 H 8.739862997533407 3.5390464155435666 55.539258385542496 H 0.0 **** 0.06
17709 H 8.845475607037542 5.2556780863450285 55.99875986382867 H 0.0 **** 0.06
17710 H 7.393637588664717 4.64435444807043 55.169735322898305 H 0.0 **** 0.06
17711 C 80.67669629085233 44.318370757660716 43.235944021786906 C 0.0 **** -0.24
17712 H 80.39898951917942 44.740552468414705 42.2708029948235 H 0.0 **** 0.06
17713 H 80.36200456345264 44.9944548485596 44.031322645914315 H 0.0 **** 0.06
17714 H 81.75754034983345 44.185468930437764 43.277823736328855 H 0.0 **** 0.06
17715 H 80.1858805637689 43.35300858583702 43.36444524108356 H 0.0 **** 0.06
17716 C 85.08197471873366 95.9387127382719 78.73428022391738 C 0.0 **** -0.24
17717 H 84.89241599284497 96.68810801633782 79.50279301856779 H 0.0 **** 0.06
17718 H 84.64708826552408 94.9865561280345 79.04038042090423 H 0.0 **** 0.06
17719 H 86.15715508463775 95.82031676915148 78.59967604617236 H 0.0 **** 0.06
17720 H 84.63098527122864 96.25910694608942 77.79486562033634 H 0.0 **** 0.06
17721 C 18.435325953858495 35.757468881986824 30.93221237317732 C 0.0 **** -0.24
17722 H 18.338274054289116 35.78737297994283 32.01762353771244 H 0.0 **** 0.06
17723 H 18.803131969264484 36.71845516189845 30.57402978760183 H 0.0 **** 0.06
17724 H 17.462357851484853 35.55041152857996 30.48656673688555 H 0.0 **** 0.06
17725 H 19.13735100674478 34.97190259222256 30.653267717064068 H 0.0 **** 0.06
17726 C 48.33150201209301 75.45456455261916 9.702765807867706 C 0.0 **** -0.24
17727 H 48.05759822526329 76.29916195500232 10.335506417873859 H 0.0 **** 0.06
17728 H 47.46571256998391 74.8069387982842 9.567735470625792 H 0.0 **** 0.06
17729 H 49.13659347986291 74.89324459248655 10.1773249238382 H 0.0 **** 0.06
17730 H 48.66628378526258 75.82177937407135 8.732894619374832 H 0.0 **** 0.06
17731 C 10.63391662710049 25.536181634598023 32.02969632223082 C 0.0 **** -0.24
17732 H 11.154096768031323 26.395400801718864 31.606466189865444 H 0.0 **** 0.06
17733 H 11.348796872958005 24.899560626881808 32.55085428932571 H 0.0 **** 0.06
17734 H 10.158381958132622 24.96885413643045 31.228980365437735 H 0.0 **** 0.06
17735 H 9.873981346249337 25.88082447015144 32.731576247528096 H 0.0 **** 0.06
17736 C 73.74869032530012 73.89653415463624 76.21294198250905 C 0.0 **** -0.24
17737 H 74.13400014825675 73.14935544748653 75.52037216765166 H 0.0 **** 0.06
17738 H 73.89456730312264 73.55229315145743 77.23751106841041 H 0.0 **** 0.06
17739 H 72.68446790849936 74.04796622129817 76.0291656564712 H 0.0 **** 0.06
17740 H 74.28013332034703 74.83640620418822 76.06539010722759 H 0.0 **** 0.06
17741 C 82.73149994423235 23.53430479551352 81.99199449612858 C 0.0 **** -0.24
17742 H 83.4512962322484 22.892467094753812 82.50013658713856 H 0.0 **** 0.06
17743 H 82.67637757640496 23.2568273673362 80.93934236509392 H 0.0 **** 0.06
17744 H 83.0480532713724 24.57473595057759 82.07850926907093 H 0.0 **** 0.06
17745 H 81.75005109977769 23.41494720180991 82.45219411765419 H 0.0 **** 0.06
17746 C 40.58768395284872 3.7488146078023448 101.55124082105058 C 0.0 **** -0.24
17747 H 39.5968385769184 3.653507098292039 101.99478067619295 H 0.0 **** 0.06
17748 H 41.01274875507312 2.757830530457312 101.39455597258443 H 0.0 **** 0.06
17749 H 41.232248078751724 4.319301237693679 102.22049251721916 H 0.0 **** 0.06
17750 H 40.509160979244484 4.266818930540168 100.59544253226338 H 0.0 **** 0.06
17751 C 94.98370164378849 29.090186699690832 32.805212037459484 C 0.0 **** -0.24
17752 H 94.77148045917326 29.77014141247463 33.62991103533952 H 0.0 **** 0.06
17753 H 95.71465972050834 28.347613640762518 33.1264475998307 H 0.0 **** 0.06
17754 H 95.38509575024057 29.655976122432236 31.963771688512225 H 0.0 **** 0.06
17755 H 94.06498093982218 28.588900958887194 32.501393736209906 H 0.0 **** 0.06
17756 C 85.72057895182719 51.8741049562239 104.36032829404898 C 0.0 **** -0.24
17757 H 85.28583719650372 52.265475666055636 103.43974513542175 H 0.0 **** 0.06
17758 H 86.36121224383143 51.02354448503479 104.12701179994325 H 0.0 **** 0.06
17759 H 84.92228156630773 51.555108534979354 105.03107438105539 H 0.0 **** 0.06
17760 H 86.31116184517539 52.6535361353088 104.84242021325954 H 0.0 **** 0.06
17761 C 19.869703887463096 65.49010846225598 60.8224911415696 C 0.0 **** -0.24
17762 H 19.265775566535233 66.27708605179825 60.370167596233756 H 0.0 **** 0.06
17763 H 19.21607676980805 64.70852343461605 61.20863114428795 H 0.0 **** 0.06
17764 H 20.45867710074545 65.90855492373504 61.638094463303275 H 0.0 **** 0.06
17765 H 20.538040486638554 65.0686553828939 60.07126932100701 H 0.0 **** 0.06
17766 C 101.03753880208819 24.216481166972585 97.28680296920069 C 0.0 **** -0.24
17767 H 102.11953934579802 24.252261878145248 97.15989642182763 H 0.0 **** 0.06
17768 H 100.7788975717423 24.564880074270548 98.28761948879438 H 0.0 **** 0.06
17769 H 100.69073982124482 23.19188368527955 97.15710671303985 H 0.0 **** 0.06
17770 H 100.56367848455452 24.85825387137197 96.54395849781712 H 0.0 **** 0.06
17771 C 23.00009178043221 2.127267493207995 63.563199864080474 C 0.0 **** -0.24
17772 H 22.001360175920876 2.405188811329481 63.22479081858498 H 0.0 **** 0.06
17773 H 23.679269034523173 2.9683162214143692 63.41968661038004 H 0.0 **** 0.06
17774 H 23.353066220500004 1.27233766057671 62.98873610231621 H 0.0 **** 0.06
17775 H 22.964222863271893 1.8652580189707635 64.62095701717365 H 0.0 **** 0.06
17776 C 14.39617099908537 78.14914151183734 68.43345920093955 C 0.0 **** -0.24
17777 H 13.419657274006966 78.41767447162727 68.83556325225751 H 0.0 **** 0.06
17778 H 14.311820231344115 77.22237887501512 67.86417477141347 H 0.0 **** 0.06
17779 H 15.101228532991712 78.01007115694546 69.2522051671468 H 0.0 **** 0.06
17780 H 14.75107036910984 78.94600404498368 67.77966086720545 H 0.0 **** 0.06
17781 C 98.19271283115216 74.94996534240309 63.08609538991266 C 0.0 **** -0.24
17782 H 97.84993692442853 75.13639856075451 64.1034719197851 H 0.0 **** 0.06
17783 H 99.08683610701408 75.54124664131982 62.889428961550266 H 0.0 **** 0.06
17784 H 97.40893519193051 75.22985683689538 62.3821727569521 H 0.0 **** 0.06
17785 H 98.4240819579123 73.89066436005331 62.969272796717405 H 0.0 **** 0.06
17786 C 0.8759108407454619 26.975178129597765 49.05394880816402 C 0.0 **** -0.24
17787 H 1.524734533592266 26.171744901501228 48.70439538342123 H 0.0 **** 0.06
17788 H 1.327196951777296 27.453820976814313 49.923563446282515 H 0.0 **** 0.06
17789 H -0.09521592356929887 26.564286466526625 49.327635667976836 H 0.0 **** 0.06
17790 H 0.7478456061302268 27.710207169912735 48.25934556690828 H 0.0 **** 0.06
17791 C 0.3148627849873571 53.74310956257175 76.87885701492925 C 0.0 **** -0.24
17792 H -0.6033399352718658 54.202836714709385 76.51357437509014 H 0.0 **** 0.06
17793 H 1.1348928719332827 54.45685224149236 76.79832277321904 H 0.0 **** 0.06
17794 H 0.5414407225618314 52.85971345095804 76.28147733846865 H 0.0 **** 0.06
17795 H 0.18580773698920083 53.45374619506821 77.92178287154553 H 0.0 **** 0.06
17796 C 52.911507519629424 66.75059127889051 57.040278157627114 C 0.0 **** -0.24
17797 H 53.45379811284994 66.87463772786754 56.10311110636226 H 0.0 **** 0.06
17798 H 53.09269155458074 67.61391164101713 57.68221437184914 H 0.0 **** 0.06
17799 H 53.2553738827998 65.84591029680564 57.542136676513024 H 0.0 **** 0.06
17800 H 51.844226372676246 66.66873196310047 56.834796506598906 H 0.0 **** 0.06
17801 C 32.79759008978334 40.40582623946901 12.347023793494259 C 0.0 **** -0.24
17802 H 32.99803518510868 39.41639942963005 11.93549484276059 H 0.0 **** 0.06
17803 H 33.47539798306741 40.5952333861205 13.179868999976065 H 0.0 **** 0.06
17804 H 31.767556723501684 40.451262037978296 12.698111356120364 H 0.0 **** 0.06
17805 H 32.952455137935544 41.15840635443914 11.573934088972294 H 0.0 **** 0.06
17806 C 31.765717361805287 2.4011461911142646 5.47361969086262 C 0.0 **** -0.24
17807 H 31.216442322753835 1.5737640154249704 5.922555499771079 H 0.0 **** 0.06
17808 H 32.239140791340446 2.0641323665963256 4.551622060050192 H 0.0 **** 0.06
17809 H 32.52971079230622 2.750463971623006 6.168040907188299 H 0.0 **** 0.06
17810 H 31.077057723249027 3.2164661581005163 5.251439644712377 H 0.0 **** 0.06
17811 C 57.3620632141152 23.02596903413766 54.69091969916579 C 0.0 **** -0.24
17812 H 56.91088630408936 23.17617864817285 55.67197637321235 H 0.0 **** 0.06
17813 H 58.376322480334515 22.64552057372407 54.812364427972355 H 0.0 **** 0.06
17814 H 57.390105783587934 23.97542884837563 54.15546435762437 H 0.0 **** 0.06
17815 H 56.76913461370821 22.308002073587033 54.12565537618596 H 0.0 **** 0.06
17816 C 53.416932704699434 2.8778399475349525 50.24305148268669 C 0.0 **** -0.24
17817 H 52.59954258474829 3.590652252768672 50.35305478717767 H 0.0 **** 0.06
17818 H 53.70682721515078 2.502785018392342 51.22534408132137 H 0.0 **** 0.06
17819 H 54.26874071335766 3.3712198317811586 49.77593792934069 H 0.0 **** 0.06
17820 H 53.0904073052248 2.0456534945890184 49.617914966944745 H 0.0 **** 0.06
17821 C 2.8794548657325443 42.393980504052735 48.843065672732905 C 0.0 **** -0.24
17822 H 2.708845180658935 42.57546399267261 49.90398497341363 H 0.0 **** 0.06
17823 H 2.647806665916546 43.29769401211445 48.27871671287022 H 0.0 **** 0.06
17824 H 2.237398365874167 41.58020800270927 48.50584396833625 H 0.0 **** 0.06
17825 H 3.9235336847744158 42.12385018325247 48.684236375468345 H 0.0 **** 0.06
17826 C 17.92222848899206 8.733948928356952 42.23817103458893 C 0.0 **** -0.24
17827 H 18.504389020333548 9.322711412901441 42.94818204287222 H 0.0 **** 0.06
17828 H 18.42997203859632 8.723710691802339 41.273183770450515 H 0.0 **** 0.06
17829 H 16.93282022931575 9.17640149215778 42.124058310139986 H 0.0 **** 0.06
17830 H 17.824581114314554 7.71339711692103 42.608100336939714 H 0.0 **** 0.06
17831 C 60.74258149365119 32.29430389604366 23.371318759772635 C 0.0 **** -0.24
17832 H 60.48849379895165 32.102807680686 24.41375453286443 H 0.0 **** 0.06
17833 H 61.266406410547006 33.247621265084916 23.29529772148291 H 0.0 **** 0.06
17834 H 59.83047551942707 32.33182356771985 22.776293851950356 H 0.0 **** 0.06
17835 H 61.38514766602111 31.495505147094065 23.00122016107261 H 0.0 **** 0.06
17836 C 105.32345774226553 82.00207294849633 48.158552345353456 C 0.0 **** -0.24
17837 H 104.34892023811554 81.51643999934032 48.204519500094335 H 0.0 **** 0.06
17838 H 105.6942236733888 81.9760919456453 47.133251717208054 H 0.0 **** 0.06
17839 H 106.02177019700532 81.47958840640342 48.81140322279745 H 0.0 **** 0.06
17840 H 105.22779336890525 83.03852431811276 48.48324547105594 H 0.0 **** 0.06
17841 C 6.614683222674154 23.977348829884818 99.98797962819424 C 0.0 **** -0.24
17842 H 5.974321612464989 23.830366752888665 99.1179123829512 H 0.0 **** 0.06
17843 H 7.544276559674351 24.455933181242386 99.67706801004078 H 0.0 **** 0.06
17844 H 6.837121069226862 23.01111535240844 100.44184747656436 H 0.0 **** 0.06
17845 H 6.104089673782468 24.610799859385935 100.71255100229075 H 0.0 **** 0.06
17846 C 57.44709851263409 15.961547003612125 31.40740090810266 C 0.0 **** -0.24
17847 H 57.53850169777326 14.957449865558345 30.993333161879036 H 0.0 **** 0.06
17848 H 56.431855492557204 16.112657271168842 31.77486114604301 H 0.0 **** 0.06
17849 H 57.66642161431912 16.695205095750012 30.632382948403745 H 0.0 **** 0.06
17850 H 58.15282127011161 16.080587583334264 32.22970647843778 H 0.0 **** 0.06
17851 C 107.02778243952652 77.63985824905922 76.59796109966834 C 0.0 **** -0.24
17852 H 107.06015305027151 76.7913703621229 77.28250563775117 H 0.0 **** 0.06
17853 H 106.41827123803715 78.43325297009221 77.03313201181908 H 0.0 **** 0.06
17854 H 106.59215027464705 77.32489106006625 75.65052037542591 H 0.0 **** 0.06
17855 H 108.03916067099838 78.0083837320222 76.42989356794362 H 0.0 **** 0.06
17856 C 35.74001047292873 94.63667433840062 14.035612810022688 C 0.0 **** -0.24
17857 H 34.73872883307345 94.3049650870457 13.760993522021646 H 0.0 **** 0.06
17858 H 36.478503513679186 93.97606148781792 13.580473890673726 H 0.0 **** 0.06
17859 H 35.84711423295133 94.60965699264072 15.119852423707716 H 0.0 **** 0.06
17860 H 35.895695312010815 95.65601378609767 13.68113140368807 H 0.0 **** 0.06
17861 C 95.90711520458801 28.817710923227423 65.33801324118377 C 0.0 **** -0.24
17862 H 95.9198124182565 28.467951660761884 64.30489561687534 H 0.0 **** 0.06
17863 H 96.59014309010719 28.21244471648295 65.93431052409045 H 0.0 **** 0.06
17864 H 94.89683639124799 28.7281221466436 65.73875172442291 H 0.0 **** 0.06
17865 H 96.22067732598872 29.861002283673542 65.37139932883451 H 0.0 **** 0.06
17866 C 32.514263198660444 61.42500212368728 92.5560903030544 C 0.0 **** -0.24
17867 H 32.042117470115436 60.62776948395921 93.1305868277933 H 0.0 **** 0.06
17868 H 31.867754221202908 61.704324880404926 91.72403402094767 H 0.0 **** 0.06
17869 H 33.47225356617457 61.07643709356924 92.1710895840796 H 0.0 **** 0.06
17870 H 32.67368046064239 62.289935423487464 93.19891233766138 H 0.0 **** 0.06
17871 C 101.46074770066554 51.12253258564939 69.55329065959724 C 0.0 **** -0.24
17872 H 101.41820834865882 51.106612390435174 68.464428575172 H 0.0 **** 0.06
17873 H 102.49222868255697 51.27481873552403 69.87318077035809 H 0.0 **** 0.06
17874 H 101.09499629613742 50.17345327057592 69.94448120891471 H 0.0 **** 0.06
17875 H 100.83987195556108 51.93443516564519 69.9293440125598 H 0.0 **** 0.06
17876 C 87.94695736639268 60.3850607729629 11.713338891667718 C 0.0 **** -0.24
17877 H 88.35506377433492 60.835767293066 10.808947672584338 H 0.0 **** 0.06
17878 H 86.90472238022265 60.68105784092654 11.828354674556238 H 0.0 **** 0.06
17879 H 88.51875259733782 60.72429482197299 12.577859129726846 H 0.0 **** 0.06
17880 H 88.01158376030381 59.29974584384718 11.638789445363074 H 0.0 **** 0.06
17881 C 91.18484252362043 8.731645568355162 90.31456602310396 C 0.0 **** -0.24
17882 H 91.24313458339873 9.496891051930959 89.5404361238765 H 0.0 **** 0.06
17883 H 90.65341587382613 9.131714885175214 91.17953254360711 H 0.0 **** 0.06
17884 H 92.19091011601859 8.437209645300527 90.610806003303 H 0.0 **** 0.06
17885 H 90.65006821544046 7.864707360712188 89.92777506161082 H 0.0 **** 0.06
17886 C 77.31473070010239 53.179408819156606 92.27342454239323 C 0.0 **** -0.24
17887 H 77.60742486269073 54.20298524974166 92.03903142141417 H 0.0 **** 0.06
17888 H 77.22024550430824 52.607818834214015 91.35027009548861 H 0.0 **** 0.06
17889 H 76.35789787469305 53.18713987856515 92.79635850168376 H 0.0 **** 0.06
17890 H 78.07263724470536 52.72152466643243 92.90909858018875 H 0.0 **** 0.06
17891 C 56.6809736926516 72.97822599066274 85.95529492595587 C 0.0 **** -0.24
17892 H 56.86806508125196 73.65198936035819 86.79059809024591 H 0.0 **** 0.06
17893 H 57.535722283848735 72.31336433143895 85.82634307165863 H 0.0 **** 0.06
17894 H 56.53180618513593 73.56018994441138 85.04578532168163 H 0.0 **** 0.06
17895 H 55.78809058374298 72.38596730943533 86.1583298187582 H 0.0 **** 0.06
17896 C 2.4071637030420447 38.3328338102051 36.707427531676075 C 0.0 **** -0.24
17897 H 1.6045806444275996 37.952239663568434 37.339056560193626 H 0.0 **** 0.06
17898 H 3.358105856639753 38.24053100567039 37.23296055745584 H 0.0 **** 0.06
17899 H 2.2208944352935873 39.38160616322398 36.47594962069306 H 0.0 **** 0.06
17900 H 2.4457802898281926 37.75774828512894 35.78267995977538 H 0.0 **** 0.06
17901 C 26.527260026021395 62.318318205241255 18.52956253558723 C 0.0 **** -0.24
17902 H 27.416490674528177 62.33259527385559 19.160600390460058 H 0.0 **** 0.06
17903 H 26.286554732517914 63.33649413888949 18.22008629622218 H 0.0 **** 0.06
17904 H 25.69032399029234 61.90095494870411 19.090377781912157 H 0.0 **** 0.06
17905 H 26.716306293705344 61.70622595378967 17.648455147592436 H 0.0 **** 0.06
17906 C 43.57908464832997 87.50791036532678 66.96390291758559 C 0.0 **** -0.24
17907 H 43.6473280500785 88.2872058917115 66.20289426741283 H 0.0 **** 0.06
17908 H 44.577550514534835 87.13538984657794 67.19096908817534 H 0.0 **** 0.06
17909 H 42.96190044904779 86.69071729426364 66.59157937389841 H 0.0 **** 0.06
17910 H 43.129447695514386 87.92114433533578 67.86641938553299 H 0.0 **** 0.06
17911 C 95.81507745059974 1.8680846602975691 12.592842575912272 C 0.0 **** -0.24
17912 H 95.34071512094766 1.7765114564831208 11.616189926898215 H 0.0 **** 0.06
17913 H 96.41733779197773 0.9805662432673046 12.789217950737935 H 0.0 **** 0.06
17914 H 95.04906473185304 1.964157879645029 13.36194928644204 H 0.0 **** 0.06
17915 H 96.45439788934658 2.750921446069185 12.604729602291542 H 0.0 **** 0.06
17916 C 93.53984801495596 55.7008157678299 27.615216994004054 C 0.0 **** -0.24
17917 H 93.95530351494165 56.530989747517935 27.045091095699938 H 0.0 **** 0.06
17918 H 92.59305913133807 55.392433505601566 27.17021815880491 H 0.0 **** 0.06
17919 H 93.37133131804688 56.01591356751079 28.64549475039449 H 0.0 **** 0.06
17920 H 94.23799600480928 54.86394177161967 27.600384571390112 H 0.0 **** 0.06
17921 C 50.02614757393345 48.329897015390415 92.42965833283537 C 0.0 **** -0.24
17922 H 51.10461540913089 48.24087520461871 92.55730987630639 H 0.0 **** 0.06
17923 H 49.710098721318104 47.73260517258356 91.57439446397223 H 0.0 **** 0.06
17924 H 49.764742266245726 49.37408857247854 92.26064968088582 H 0.0 **** 0.06
17925 H 49.523604402286914 47.97138364069699 93.32897324346138 H 0.0 **** 0.06
17926 C 49.23295358485015 89.4046676392015 42.52766599628711 C 0.0 **** -0.24
17927 H 50.21548319047392 89.74989838482492 42.84720620807701 H 0.0 **** 0.06
17928 H 49.34984951589516 88.60379213391226 41.79738215666475 H 0.0 **** 0.06
17929 H 48.68659675465406 90.23204150889359 42.075386902776785 H 0.0 **** 0.06
17930 H 48.680486993304385 89.03203081635175 43.389786715888874 H 0.0 **** 0.06
17931 C 90.3805359795266 66.32150232315428 67.05613183274846 C 0.0 **** -0.24
17932 H 90.45241601497874 66.78223556194968 66.07071828103386 H 0.0 **** 0.06
17933 H 91.29777298658473 65.7717115262447 67.26670973318045 H 0.0 **** 0.06
17934 H 89.53351798677019 65.63666908937552 67.07569225225694 H 0.0 **** 0.06
17935 H 90.23913946440769 67.09640084717518 67.80982874096975 H 0.0 **** 0.06
17936 C 95.50179447520405 10.344238839457091 105.06520831283024 C 0.0 **** -0.24
17937 H 95.50305720746357 9.483459779004136 104.3976856919461 H 0.0 **** 0.06
17938 H 94.66520089093916 10.264677579767977 105.76004997134862 H 0.0 **** 0.06
17939 H 95.40260765805498 11.258373065797173 104.47909540520072 H 0.0 **** 0.06
17940 H 96.43712931601544 10.371748924946075 105.62479715094315 H 0.0 **** 0.06
17941 C 50.397080809310864 65.75554908820573 60.57018263765539 C 0.0 **** -0.24
17942 H 51.261871547855094 65.32088483004094 61.07207176432044 H 0.0 **** 0.06
17943 H 49.738470274578845 66.21031931274399 61.31039877646688 H 0.0 **** 0.06
17944 H 49.858439416799854 64.9746068876297 60.03368806691634 H 0.0 **** 0.06
17945 H 50.731925788895865 66.51694781591618 59.864534281883834 H 0.0 **** 0.06
17946 C 86.35013929229325 94.20928793557177 99.22515666210064 C 0.0 **** -0.24
17947 H 86.22877555299829 93.2652022121358 99.75516764620106 H 0.0 **** 0.06
17948 H 87.40773818971871 94.37668898553646 99.01908335124071 H 0.0 **** 0.06
17949 H 85.96531087296538 95.02315174461101 99.84066990445753 H 0.0 **** 0.06
17950 H 85.79840253792526 94.17129064675605 98.28617666161 H 0.0 **** 0.06
17951 C 81.22117316583615 14.138436469011523 21.573712770203343 C 0.0 **** -0.24
17952 H 82.2126865743515 13.802072135725826 21.270205084960196 H 0.0 **** 0.06
17953 H 81.2251086185039 14.362761153593855 22.640662480237864 H 0.0 **** 0.06
17954 H 80.4938450372606 13.351867911044387 21.370123840592385 H 0.0 **** 0.06
17955 H 80.95423221077777 15.034405781829136 21.013056693951967 H 0.0 **** 0.06
17956 C 80.71034096273773 89.05206235482308 16.4409653646818 C 0.0 **** -0.24
17957 H 79.8853650130117 89.3359052555594 15.787760508043618 H 0.0 **** 0.06
17958 H 80.31455435348406 88.71315818249872 17.39900799764243 H 0.0 **** 0.06
17959 H 81.36048485765033 89.91235991222197 16.599495260912633 H 0.0 **** 0.06
17960 H 81.27997538244092 88.24588489648409 15.977216182758227 H 0.0 **** 0.06
17961 C 44.09893337642168 51.99200993558342 85.029802597799 C 0.0 **** -0.24
17962 H 44.49897817061635 51.82975936788471 86.03099471365503 H 0.0 **** 0.06
17963 H 43.98058754733135 53.06138546943357 84.8543319408448 H 0.0 **** 0.06
17964 H 43.1308445167905 51.49897561883782 84.94184905554351 H 0.0 **** 0.06
17965 H 44.78630435907902 51.576103173444935 84.29289458281143 H 0.0 **** 0.06
17966 C 60.61226521363119 91.40309355839389 52.917170103823054 C 0.0 **** -0.24
17967 H 60.45465991294742 90.41676993094183 52.47943155969324 H 0.0 **** 0.06
17968 H 59.90837041821874 92.11045792514861 52.47866072212656 H 0.0 **** 0.06
17969 H 61.6321213945763 91.73071147706409 52.71338439110062 H 0.0 **** 0.06
17970 H 60.45503690413091 91.3513406160942 53.99386390100952 H 0.0 **** 0.06
17971 C 85.87347110194949 25.139372001645427 51.22491577485466 C 0.0 **** -0.24
17972 H 85.57937591555634 24.11890247546785 51.47191721132769 H 0.0 **** 0.06
17973 H 85.12003138148688 25.58844910581047 50.577596640702026 H 0.0 **** 0.06
17974 H 86.83433679062117 25.12535703646961 50.71076462692592 H 0.0 **** 0.06
17975 H 85.96015440411031 25.723414605483953 52.14115589071089 H 0.0 **** 0.06
17976 C 79.87383936595408 32.424931826879856 104.49376430281256 C 0.0 **** -0.24
17977 H 79.82068778312708 33.371675536736234 105.03241819850973 H 0.0 **** 0.06
17978 H 79.11321541505151 31.745777073004092 104.87901712663955 H 0.0 **** 0.06
17979 H 80.8607216709865 31.982793508655675 104.63318369082481 H 0.0 **** 0.06
17980 H 79.70076988665568 32.60105335256111 103.43167395238163 H 0.0 **** 0.06
17981 C 60.09852779422608 20.752918877343333 30.136636590508772 C 0.0 **** -0.24
17982 H 61.06102598931484 21.151392020663422 30.457256427955627 H 0.0 **** 0.06
17983 H 60.08375962882734 19.67415203999886 30.28833255930965 H 0.0 **** 0.06
17984 H 59.947257539293616 20.974047835830262 29.080005620047146 H 0.0 **** 0.06
17985 H 59.30158746602672 21.21390653872342 30.721619732233663 H 0.0 **** 0.06
17986 C 15.337171053012952 34.00502917720608 43.36313862323095 C 0.0 **** -0.24
17987 H 16.03455157424517 34.255915129653175 42.56385872476932 H 0.0 **** 0.06
17988 H 14.332179179456915 33.91021822296707 42.95219590984564 H 0.0 **** 0.06
17989 H 15.349363059965668 34.79208373475782 44.11743843582474 H 0.0 **** 0.06
17990 H 15.633606014350136 33.05968700740233 43.81933186580622 H 0.0 **** 0.06
17991 C 92.07596262891221 92.61316930834906 79.85778496728769 C 0.0 **** -0.24
17992 H 91.97391783244525 91.71121168434568 80.46089937781433 H 0.0 **** 0.06
17993 H 91.72129792954591 93.47279036556732 80.42642307316913 H 0.0 **** 0.06
17994 H 91.48505830013225 92.51024157121746 78.94770823547553 H 0.0 **** 0.06
17995 H 93.12448993960363 92.7580830473693 79.59467992218991 H 0.0 **** 0.06
17996 C 33.79069687245595 94.74549561568821 2.5524469940645114 C 0.0 **** -0.24
17997 H 33.19422823147323 94.59599207353008 3.452256720504039 H 0.0 **** 0.06
17998 H 34.83569943477674 94.51949232078945 2.7667386302903534 H 0.0 **** 0.06
17999 H 33.70278080305067 95.78234441453296 2.2273084718407343 H 0.0 **** 0.06
18000 H 33.430313412904496 94.08549868280616 1.7638530025770995 H 0.0 **** 0.06
18001 C 41.39954553257712 41.537479386904636 65.7308944026066 C 0.0 **** -0.24
18002 H 42.41713934682505 41.91778981942707 65.81809815590938 H 0.0 **** 0.06
18003 H 41.11768633972051 41.037181126527386 66.65754685542257 H 0.0 **** 0.06
18004 H 41.34661924908596 40.82780585785781 64.90465107003979 H 0.0 **** 0.06
18005 H 40.717354564198054 42.36598190497875 65.54215188947052 H 0.0 **** 0.06
18006 C 60.4415554042061 48.03301478253894 77.30821622511486 C 0.0 **** -0.24
18007 H 59.37413629060246 48.25078441773445 77.32108001714033 H 0.0 **** 0.06
18008 H 60.59342741370547 46.97363463843408 77.1014112177554 H 0.0 **** 0.06
18009 H 60.87385503952302 48.279685986744596 78.278163166511 H 0.0 **** 0.06
18010 H 60.92481272875328 48.62755384259859 76.53389568308769 H 0.0 **** 0.06
18011 C 75.47361149515542 49.07882856900537 97.06766665260136 C 0.0 **** -0.24
18012 H 75.29942470902832 50.129380989782995 96.8325872288393 H 0.0 **** 0.06
18013 H 75.37139784570613 48.481984997202154 96.1604032366375 H 0.0 **** 0.06
18014 H 74.74255615453617 48.746898674563624 97.80530502624916 H 0.0 **** 0.06
18015 H 76.47837496983087 48.95812669060264 97.47110942140435 H 0.0 **** 0.06
18016 C 18.50910877553201 73.84726869593698 2.5769297079113693 C 0.0 **** -0.24
18017 H 18.192982297832557 74.4658024693174 1.7374633964447526 H 0.0 **** 0.06
18018 H 18.734809771585564 72.84131926082969 2.221910639393819 H 0.0 **** 0.06
18019 H 17.70876545960665 73.80065386943136 3.3164818788761883 H 0.0 **** 0.06
18020 H 19.399210500291964 74.28119061125139 3.0325999866927766 H 0.0 **** 0.06
18021 C 52.239362040227775 61.56601804318058 78.29082147087755 C 0.0 **** -0.24
18022 H 52.155486122421166 61.93453971136242 79.31343984558424 H 0.0 **** 0.06
18023 H 52.03725134058641 60.49489414881015 78.27368696739757 H 0.0 **** 0.06
18024 H 53.24607997278679 61.75199383261457 77.91868756236421 H 0.0 **** 0.06
18025 H 51.516921687717684 62.08269895455703 77.65922550359561 H 0.0 **** 0.06
18026 C 51.665988001305664 15.846374658090255 52.2112356820617 C 0.0 **** -0.24
18027 H 51.75290818708183 16.425362201933993 51.29087374618551 H 0.0 **** 0.06
18028 H 52.26606151928482 14.939985231378856 52.12705304895122 H 0.0 **** 0.06
18029 H 50.62260762198218 15.578637906949226 52.37399029520341 H 0.0 **** 0.06
18030 H 52.023364430525106 16.44312231572593 53.05012185016439 H 0.0 **** 0.06
18031 C 38.561994437593356 50.5648424966979 71.5769697312341 C 0.0 **** -0.24
18032 H 38.115818363977354 51.04620662961527 72.44737320275136 H 0.0 **** 0.06
18033 H 39.646327077638475 50.67866053775324 71.6149694943756 H 0.0 **** 0.06
18034 H 38.179998393641256 51.029769069355574 70.66853042308786 H 0.0 **** 0.06
18035 H 38.307871797909826 49.50496678504013 71.57789628698475 H 0.0 **** 0.06
18036 C 60.84088431185535 47.34336601109218 42.259459614284594 C 0.0 **** -0.24
18037 H 60.383624806246026 46.35424890611853 42.218841270422075 H 0.0 **** 0.06
18038 H 61.51376963043374 47.39781022082859 43.11496815412974 H 0.0 **** 0.06
18039 H 60.06140872766798 48.09905522103445 42.36169651987578 H 0.0 **** 0.06
18040 H 61.401470557052775 47.522544719682514 41.34177405917586 H 0.0 **** 0.06
18041 C 28.186488608089746 10.55812451316119 104.93691272677928 C 0.0 **** -0.24
18042 H 27.291610806588324 10.438835333685233 105.547598008518 H 0.0 **** 0.06
18043 H 28.51109698422667 11.598587658261224 104.96848156009358 H 0.0 **** 0.06
18044 H 27.964471639928206 10.278373745549601 103.90724886640855 H 0.0 **** 0.06
18045 H 28.978750154828617 9.918089725466416 105.32405453269705 H 0.0 **** 0.06
18046 C 20.989872241543708 17.531928365521495 14.239907855613978 C 0.0 **** -0.24
18047 H 21.637616353500107 18.129095484657952 13.59759972558254 H 0.0 **** 0.06
18048 H 21.42516142256943 16.54084790574349 14.37186089897341 H 0.0 **** 0.06
18049 H 20.006417515543205 17.43928237359654 13.780170773869656 H 0.0 **** 0.06
18050 H 20.893511086729006 18.018802772437738 15.210741302405324 H 0.0 **** 0.06
18051 C 0.8770508900950347 24.33753960644636 8.744070316700629 C 0.0 **** -0.24
18052 H 1.133708516747845 23.89914748387814 7.779564263106238 H 0.0 **** 0.06
18053 H 1.172077198003393 25.386808399222996 8.754987570848272 H 0.0 **** 0.06
18054 H 1.40183811408383 23.803862200822888 9.535730249969589 H 0.0 **** 0.06
18055 H -0.19774601416773407 24.259299340483373 8.903737855138957 H 0.0 **** 0.06
18056 C 37.53905257361785 64.43336726152015 41.884467098530536 C 0.0 **** -0.24
18057 H 37.09325595856046 65.40491071244378 41.66831561042693 H 0.0 **** 0.06
18058 H 36.79351256311344 63.65179262589605 41.733589826784794 H 0.0 **** 0.06
18059 H 37.882936395664586 64.41272401123426 42.91815053078261 H 0.0 **** 0.06
18060 H 38.383228951964895 64.26457411906131 41.21682140800522 H 0.0 **** 0.06
18061 C 84.61220118329183 29.1502863768456 38.0854142619317 C 0.0 **** -0.24
18062 H 84.42665802440575 29.135217884729798 39.15910292930786 H 0.0 **** 0.06
18063 H 85.65513177620855 29.41003979085491 37.90124125828132 H 0.0 **** 0.06
18064 H 83.96451222980411 29.89148035597944 37.6156619036222 H 0.0 **** 0.06
18065 H 84.40261220788878 28.166393764515135 37.66585795900352 H 0.0 **** 0.06
18066 C 67.05142502227147 35.042440169662456 4.0227092178880355 C 0.0 **** -0.24
18067 H 67.9426363347934 35.60450626691829 3.742638102545996 H 0.0 **** 0.06
18068 H 66.89112700277468 34.23610076480793 3.305508328636151 H 0.0 **** 0.06
18069 H 66.18776487117469 35.70710924023328 4.021018473519632 H 0.0 **** 0.06
18070 H 67.18476660108055 34.621738926972824 5.018923629576108 H 0.0 **** 0.06
18071 C 0.21419422619531758 9.862124875819575 15.177870734549856 C 0.0 **** -0.24
18072 H 1.1204462254700616 9.871983442363543 14.573359551146979 H 0.0 **** 0.06
18073 H 0.46311039541578225 10.10765135525564 16.209627553893625 H 0.0 **** 0.06
18074 H -0.23715819177893138 8.87097661340654 15.137935725859165 H 0.0 **** 0.06
18075 H -0.4897346691192439 10.597323417049665 14.788399419813913 H 0.0 **** 0.06
18076 C 49.93888680820594 85.30962133401209 17.49127206288739 C 0.0 **** -0.24
18077 H 50.866871545886575 85.6108710448764 17.97678892564022 H 0.0 **** 0.06
18078 H 49.09474983870333 85.55930667941436 18.134385373898454 H 0.0 **** 0.06
18079 H 49.955095962662696 84.23427212926322 17.312453489991583 H 0.0 **** 0.06
18080 H 49.839474558571034 85.8346059715646 16.540951556339053 H 0.0 **** 0.06
18081 C 79.53869915493559 90.17271011661715 73.77824317972849 C 0.0 **** -0.24
18082 H 78.82522042570346 90.98211244494199 73.62462135047022 H 0.0 **** 0.06
18083 H 80.54768199581588 90.58261370825619 73.82249672313043 H 0.0 **** 0.06
18084 H 79.46815860318927 89.46570872031583 72.95158196269446 H 0.0 **** 0.06
18085 H 79.31188030218308 89.66200188995201 74.71417267951114 H 0.0 **** 0.06
18086 C 12.801281625943545 17.008849212183804 81.13466667280397 C 0.0 **** -0.24
18087 H 13.824156491467079 17.280251328618448 80.87346443213158 H 0.0 **** 0.06
18088 H 12.140119223341458 17.23843029660543 80.29914019015811 H 0.0 **** 0.06
18089 H 12.48825753228573 17.574327423024926 82.01290471617932 H 0.0 **** 0.06
18090 H 12.75393711248006 15.942398410849506 81.35425009111992 H 0.0 **** 0.06
18091 C 2.9353303410339775 91.12800056519198 75.87332526210929 C 0.0 **** -0.24
18092 H 2.353289935025712 91.92187920701829 75.40501939483272 H 0.0 **** 0.06
18093 H 2.6254480695290603 90.16392569707277 75.4676795770153 H 0.0 **** 0.06
18094 H 2.765826849145241 91.14019224012904 76.95037524890671 H 0.0 **** 0.06
18095 H 3.9940879177693267 91.28515598136111 75.66915072497062 H 0.0 **** 0.06
18096 C 60.65951263365501 37.74342262867424 87.84109634602486 C 0.0 **** -0.24
18097 H 61.51699565005967 37.0943905251992 87.6651506621145 H 0.0 **** 0.06
18098 H 59.75470974873106 37.25807603975457 87.4737992143354 H 0.0 **** 0.06
18099 H 60.804554001948276 38.687528609772386 87.31755787577242 H 0.0 **** 0.06
18100 H 60.5618579111125 37.93253523643597 88.91114110443931 H 0.0 **** 0.06
18101 C 101.81967379059256 66.32497266296626 38.814312500557605 C 0.0 **** -0.24
18102 H 101.64979877478072 67.1342099392393 38.104395464106204 H 0.0 **** 0.06
18103 H 101.14766210749428 66.43968249088307 39.66470867444508 H 0.0 **** 0.06
18104 H 102.85354758911285 66.35688502047678 39.16047626666847 H 0.0 **** 0.06
18105 H 101.62948495140432 65.3677874865416 38.32757488605458 H 0.0 **** 0.06
18106 C 105.15810184686018 71.17187072518816 66.91467612155269 C 0.0 **** -0.24
18107 H 105.21708857393196 71.25621670601964 67.99976368691149 H 0.0 **** 0.06
18108 H 104.92365217314747 70.14193572519596 66.6433626299777 H 0.0 **** 0.06
18109 H 106.114118552559 71.45525480986457 66.4758342720453 H 0.0 **** 0.06
18110 H 104.37632707464456 71.83288111200555 66.54118695409424 H 0.0 **** 0.06
18111 C 30.611136784837015 40.57609561641827 88.38725644879527 C 0.0 **** -0.24
18112 H 30.2939347172873 39.53998960582607 88.50577604203319 H 0.0 **** 0.06
18113 H 31.63947871698082 40.60127458056918 88.0263040811867 H 0.0 **** 0.06
18114 H 30.551092743130653 41.08647270708017 89.3485527866918 H 0.0 **** 0.06
18115 H 29.960249751621916 41.075233546547295 87.66937407260143 H 0.0 **** 0.06
18116 C 3.1276064666558057 25.87320136883693 67.73146331562205 C 0.0 **** -0.24
18117 H 3.6708154497461862 26.151514469966656 66.82955177456017 H 0.0 **** 0.06
18118 H 3.7962965508635875 25.338661041039416 68.40696754683549 H 0.0 **** 0.06
18119 H 2.2883916738495316 25.229122257244114 67.4663060079051 H 0.0 **** 0.06
18120 H 2.7545595357278785 26.771167802945484 68.22365531278211 H 0.0 **** 0.06
18121 C 17.66098522780328 66.49755255818184 46.84535581143402 C 0.0 **** -0.24
18122 H 16.96586754395713 65.77872598507744 47.2794796217687 H 0.0 **** 0.06
18123 H 18.59665067182725 66.48199711740796 47.40389846245844 H 0.0 **** 0.06
18124 H 17.225474966154394 67.4958018466242 46.890531938089595 H 0.0 **** 0.06
18125 H 17.854205423882746 66.2327078784042 45.80527503991425 H 0.0 **** 0.06
18126 C 59.52987688331041 28.42367620341659 80.7489335459901 C 0.0 **** -0.24
18127 H 58.74956574401119 28.350159187602344 79.99145583694019 H 0.0 **** 0.06
18128 H 59.073141987324334 28.54634071520465 81.73053291315512 H 0.0 **** 0.06
18129 H 60.165221045220505 29.2833111674301 80.53317840312178 H 0.0 **** 0.06
18130 H 60.132371738264965 27.515427347439953 80.73772329000178 H 0.0 **** 0.06
18131 C 55.75467609561929 54.35957775527779 66.75314313739236 C 0.0 **** -0.24
18132 H 55.97613462860093 53.58767055809626 67.4902700672634 H 0.0 **** 0.06
18133 H 54.901544836549675 54.948757961744626 67.08954980781283 H 0.0 **** 0.06
18134 H 55.5197091265764 53.891578583979076 65.7971630080541 H 0.0 **** 0.06
18135 H 56.62285371437494 55.00927018607368 66.63684123382959 H 0.0 **** 0.06
18136 C 95.42410126924375 59.76754897379635 93.5338929496823 C 0.0 **** -0.24
18137 H 95.3495514142869 60.07443236626898 94.5765441629141 H 0.0 **** 0.06
18138 H 96.08679104694068 60.448926374742996 92.99992026841664 H 0.0 **** 0.06
18139 H 94.43465547535413 59.78955830147942 93.076482471259 H 0.0 **** 0.06
18140 H 95.82496831540635 58.754469532905546 93.4816680422378 H 0.0 **** 0.06
18141 C 53.17423852104565 3.0763669185267872 8.831345845751613 C 0.0 **** -0.24
18142 H 53.88507777388306 3.3247283954809177 9.620042164243628 H 0.0 **** 0.06
18143 H 52.48314621504886 3.907503813044528 8.69036498793723 H 0.0 **** 0.06
18144 H 52.61659390180919 2.183614250647196 9.113884066341598 H 0.0 **** 0.06
18145 H 53.7135192377954 2.889472722272302 7.902842983858804 H 0.0 **** 0.06
18146 C 5.217372460429502 64.15656405701887 59.720722131858736 C 0.0 **** -0.24
18147 H 5.599729889680916 64.09403096561667 60.73982229489576 H 0.0 **** 0.06
18148 H 4.1274548990114255 64.16301990351954 59.74138010385255 H 0.0 **** 0.06
18149 H 5.565752715951589 63.295727765101674 59.1502839057772 H 0.0 **** 0.06
18150 H 5.578062364482861 65.07301816225743 59.25327545971686 H 0.0 **** 0.06
18151 C 19.64872139586214 34.257797415442155 55.304877145140246 C 0.0 **** -0.24
18152 H 19.1927925805291 33.288166765434454 55.10481209527177 H 0.0 **** 0.06
18153 H 19.548271299139685 34.894828720106744 54.42526946465337 H 0.0 **** 0.06
18154 H 20.7043316863178 34.12117288943389 55.53688857000632 H 0.0 **** 0.06
18155 H 19.147805909245392 34.7267181709868 56.152806850455065 H 0.0 **** 0.06
18156 C 38.778386683515805 54.91268872455325 17.064305633668113 C 0.0 **** -0.24
18157 H 39.79954311300361 54.53153897649804 17.077726831629363 H 0.0 **** 0.06
18158 H 38.703902607364924 55.77333747809402 17.7288329405286 H 0.0 **** 0.06
18159 H 38.09507999629388 54.132644530987534 17.401320134601352 H 0.0 **** 0.06
18160 H 38.51592435412162 55.21280506936026 16.04935368520942 H 0.0 **** 0.06
18161 C 29.361306209446262 29.213151521350113 29.77420117290505 C 0.0 **** -0.24
18162 H 29.233041085534666 29.843938140750453 30.65467381522837 H 0.0 **** 0.06
18163 H 28.473160079577013 28.594509534832866 29.638819001848958 H 0.0 **** 0.06
18164 H 30.232676599762677 28.573635956369884 29.909811370604693 H 0.0 **** 0.06
18165 H 29.504754676734628 29.84189686254186 28.895391440860116 H 0.0 **** 0.06
18166 C 52.11085671646836 101.51300022992788 62.27266316739778 C 0.0 **** -0.24
18167 H 52.5003260174544 101.31071537710005 63.27062219899918 H 0.0 **** 0.06
18168 H 52.94136571759236 101.65932312981326 61.5817158926167 H 0.0 **** 0.06
18169 H 51.49602702788255 102.41209339315455 62.29875142822459 H 0.0 **** 0.06
18170 H 51.50609244066143 100.6685425251408 61.94132182171981 H 0.0 **** 0.06
18171 C 97.40917063409307 77.01743715496094 7.703300424281625 C 0.0 **** -0.24
18172 H 96.56698736965743 77.49898114152413 7.206950327487904 H 0.0 **** 0.06
18173 H 97.68112132537422 76.11190806383675 7.160769685919746 H 0.0 **** 0.06
18174 H 97.12872754968683 76.75866826984971 8.72524862971348 H 0.0 **** 0.06
18175 H 98.25801084668169 77.70006981893101 7.722603040558674 H 0.0 **** 0.06
18176 C 42.73521742694941 63.14918238427751 94.65347705566943 C 0.0 **** -0.24
18177 H 42.858715159749046 62.30467825631915 95.33069027686813 H 0.0 **** 0.06
18178 H 42.18482674099239 63.94358615758034 95.1583903985555 H 0.0 **** 0.06
18179 H 42.18207311962974 62.828796290235104 93.7702625516808 H 0.0 **** 0.06
18180 H 43.715825284719536 63.51996693983081 94.3533057723495 H 0.0 **** 0.06
18181 C 51.14581676129484 54.757787547516976 67.11659330951474 C 0.0 **** -0.24
18182 H 50.284264375530995 54.65689486506265 67.7762362708603 H 0.0 **** 0.06
18183 H 50.81803190753834 55.11796117944063 66.14185810764863 H 0.0 **** 0.06
18184 H 51.630320957353035 53.787383553876495 67.00217064697338 H 0.0 **** 0.06
18185 H 51.85194527674611 55.46781760015383 67.54858359866066 H 0.0 **** 0.06
18186 C 2.74706612359698 87.79356626445951 52.150803700634896 C 0.0 **** -0.24
18187 H 3.149901398462518 86.89676581550452 52.620762603601975 H 0.0 **** 0.06
18188 H 1.680257750734654 87.6602370352245 51.968941231642305 H 0.0 **** 0.06
18189 H 3.258897840239541 87.96805968680178 51.204147972028636 H 0.0 **** 0.06
18190 H 2.9002331934923262 88.64822972083402 52.809404423491 H 0.0 **** 0.06
18191 C 94.88452946255143 38.19842573697866 91.28776429896158 C 0.0 **** -0.24
18192 H 94.0304977269708 37.67576359113173 91.71808251326408 H 0.0 **** 0.06
18193 H 95.36214489181918 38.80796458079209 92.0542560234088 H 0.0 **** 0.06
18194 H 94.54599829385342 38.83794945598095 90.47256814490537 H 0.0 **** 0.06
18195 H 95.59987760451327 37.470039839895264 90.90417625412991 H 0.0 **** 0.06
18196 C 93.09030910046154 32.14596282578901 61.80808688235206 C 0.0 **** -0.24
18197 H 92.62450691792223 31.381926847980054 61.18487094424614 H 0.0 **** 0.06
18198 H 92.41314718026567 32.41427058369419 62.61906246367582 H 0.0 **** 0.06
18199 H 93.30204534818567 33.027814238136486 61.203479114830756 H 0.0 **** 0.06
18200 H 94.02077203467968 31.7581082026381 62.22374451342746 H 0.0 **** 0.06
18201 C 15.629690849764998 64.8938358821621 18.239254563790894 C 0.0 **** -0.24
18202 H 16.191503452115235 64.68443760956735 17.32838260811303 H 0.0 **** 0.06
18203 H 14.609338378006473 64.5279228793164 18.127521904948765 H 0.0 **** 0.06
18204 H 15.613646845548722 65.96895049939901 18.416448893516474 H 0.0 **** 0.06
18205 H 16.105909588258307 64.39342489048894 19.082223866627032 H 0.0 **** 0.06
18206 C 34.25319215240616 78.76539432798624 40.23253765468351 C 0.0 **** -0.24
18207 H 34.474392938680545 77.8141804884868 39.747099491632355 H 0.0 **** 0.06
18208 H 35.18293664180408 79.22922342400837 40.564196407753386 H 0.0 **** 0.06
18209 H 33.60670468707109 78.59129294054159 41.09282910711164 H 0.0 **** 0.06
18210 H 33.74876382001531 79.42468798647431 39.526464276022395 H 0.0 **** 0.06
18211 C 59.56448243074541 11.582927332042365 104.99505488573698 C 0.0 **** -0.24
18212 H 58.934277304324176 12.255692951688507 104.41375753720693 H 0.0 **** 0.06
18213 H 60.40311497579203 11.249469619257754 104.3835002000056 H 0.0 **** 0.06
18214 H 58.97797910635796 10.71959639781016 105.31133057797736 H 0.0 **** 0.06
18215 H 59.941201312520946 12.107077430522619 105.87410967630818 H 0.0 **** 0.06
18216 C 74.25784419324651 95.9179816875084 2.2025914477661814 C 0.0 **** -0.24
18217 H 73.70870103900307 96.7671220007867 1.7949908332677467 H 0.0 **** 0.06
18218 H 75.32552872593075 96.06459910149033 2.039932999648272 H 0.0 **** 0.06
18219 H 73.93599642119435 95.00507998086015 1.7021874513703636 H 0.0 **** 0.06
18220 H 74.0590531986497 95.83630260499693 3.271461131790531 H 0.0 **** 0.06
18221 C 93.68843310209104 86.70036981468644 78.72922752603253 C 0.0 **** -0.24
18222 H 93.54360257682251 87.136347297935 79.71811654888387 H 0.0 **** 0.06
18223 H 93.93704898945879 87.48865665975012 78.01865402627675 H 0.0 **** 0.06
18224 H 92.77090068237419 86.20272903996846 78.41433603448635 H 0.0 **** 0.06
18225 H 94.50117805528001 85.97513048779496 78.76755848150202 H 0.0 **** 0.06
18226 C 41.28466235646641 70.97205909904443 106.18242018368886 C 0.0 **** -0.24
18227 H 41.20623645505857 70.04336931815527 105.61684667483874 H 0.0 **** 0.06
18228 H 41.80943042366076 71.71763242823135 105.58607419528954 H 0.0 **** 0.06
18229 H 41.83680915818795 70.78895490452317 107.10389641418053 H 0.0 **** 0.06
18230 H 40.28581498220933 71.33594111891853 106.42349799570803 H 0.0 **** 0.06
18231 C 34.19792771786868 96.95920920983828 69.69014563394296 C 0.0 **** -0.24
18232 H 33.2552386961319 97.06913166749082 69.1540195552218 H 0.0 **** 0.06
18233 H 34.943291587864906 96.51770854686822 69.02841337242535 H 0.0 **** 0.06
18234 H 34.050406727672 96.31138805411584 70.55524915079275 H 0.0 **** 0.06
18235 H 34.54180453228935 97.93787426291424 70.02477700368644 H 0.0 **** 0.06
18236 C 81.19679284381579 16.301546590993215 36.00914307044093 C 0.0 **** -0.24
18237 H 81.21098003250302 15.928802177599593 37.03399871693031 H 0.0 **** 0.06
18238 H 81.4856104551771 15.501323919066415 35.32763901662456 H 0.0 **** 0.06
18239 H 81.89659646074779 17.13114855830002 35.91416870881507 H 0.0 **** 0.06
18240 H 80.1916516989794 16.643768836898463 35.76226671864515 H 0.0 **** 0.06
18241 C 73.05601792038468 67.16561665517607 27.151601795497584 C 0.0 **** -0.24
18242 H 72.26048961873221 66.6854195784685 27.720764482032564 H 0.0 **** 0.06
18243 H 73.86635548190772 66.45532019699348 26.98958126081385 H 0.0 **** 0.06
18244 H 73.43208281176916 68.02500772218336 27.707169003942624 H 0.0 **** 0.06
18245 H 72.66484718805636 67.4973004905077 26.18965012749004 H 0.0 **** 0.06
18246 C 60.605704437189445 14.224685474772741 31.479941799739038 C 0.0 **** -0.24
18247 H 60.43196070029012 13.403691367339434 32.17567774410146 H 0.0 **** 0.06
18248 H 61.67505673014517 14.42942653193478 31.41931567776996 H 0.0 **** 0.06
18249 H 60.08442444540532 15.114961926225703 31.83210756840721 H 0.0 **** 0.06
18250 H 60.23152507846277 13.950706202737365 30.4943912966366 H 0.0 **** 0.06
18251 C 48.15764181279375 84.91516449723622 103.08636662012793 C 0.0 **** -0.24
18252 H 47.236143905437096 85.18168759094749 102.56900915862201 H 0.0 **** 0.06
18253 H 48.85086350361622 85.75621522742455 103.04845723100829 H 0.0 **** 0.06
18254 H 48.60846786229706 84.04889304458698 102.60161784398412 H 0.0 **** 0.06
18255 H 47.93368780748212 84.67400348112386 104.1262905361948 H 0.0 **** 0.06
18256 C 13.28939238507121 91.7849449214101 57.4320648481756 C 0.0 **** -0.24
18257 H 12.958656925808796 91.14222795195997 58.2478863098701 H 0.0 **** 0.06
18258 H 12.426640872542237 92.28824069077727 56.99516906783714 H 0.0 **** 0.06
18259 H 13.782694595712485 91.18040930569283 56.670649490559924 H 0.0 **** 0.06
18260 H 13.988241783869412 92.52690839098977 57.816355577645794 H 0.0 **** 0.06
18261 C 93.4317717303319 57.14265782484092 44.44030742039825 C 0.0 **** -0.24
18262 H 92.56022685510636 57.456171078389765 43.86635390241728 H 0.0 **** 0.06
18263 H 93.6973619632244 57.921898801715436 45.15424649763466 H 0.0 **** 0.06
18264 H 94.26901420169992 56.967569436163025 43.7642306233087 H 0.0 **** 0.06
18265 H 93.20072877039568 56.22226303208198 44.97710096434473 H 0.0 **** 0.06
18266 C 89.99534066419822 42.610539628884915 101.9710871958124 C 0.0 **** -0.24
18267 H 90.75862725090805 42.476946178448 101.20431402382918 H 0.0 **** 0.06
18268 H 90.32002331413301 42.127938841723676 102.89301093010211 H 0.0 **** 0.06
18269 H 89.06059985789913 42.16200424347831 101.63528320344274 H 0.0 **** 0.06
18270 H 89.8440930575553 43.67500420705271 102.15166142431974 H 0.0 **** 0.06
18271 C 81.47827230969861 63.28155144014465 77.67710712103317 C 0.0 **** -0.24
18272 H 81.88040563805387 62.606120431990746 76.92127744636817 H 0.0 **** 0.06
18273 H 82.14958103677691 64.13216755751233 77.79730922742522 H 0.0 **** 0.06
18274 H 81.38877184692856 62.751436976635176 78.62572667977433 H 0.0 **** 0.06
18275 H 80.49654898943862 63.633972751420885 77.3627773763344 H 0.0 **** 0.06
18276 C 7.700230534816427 73.08280268608128 103.12845015890198 C 0.0 **** -0.24
18277 H 8.413276892237036 73.81589446847883 102.75266831992325 H 0.0 **** 0.06
18278 H 7.269828018220949 73.43994670105141 104.06376054084944 H 0.0 **** 0.06
18279 H 8.21060865416365 72.13502813517307 103.30112414402635 H 0.0 **** 0.06
18280 H 6.906868716226313 72.93848875887957 102.39468163380597 H 0.0 **** 0.06
18281 C 47.555394781898485 16.872643067093406 91.72492818642952 C 0.0 **** -0.24
18282 H 47.87998248914485 16.420312485778936 90.78800740111072 H 0.0 **** 0.06
18283 H 46.508879966927964 17.166162085618225 91.6428974979925 H 0.0 **** 0.06
18284 H 48.16436026917461 17.752505718329303 91.93408479536461 H 0.0 **** 0.06
18285 H 47.6693338703509 16.151654463867544 92.53452131392972 H 0.0 **** 0.06
18286 C 65.46249082913207 95.3506442086825 55.97915541518239 C 0.0 **** -0.24
18287 H 65.36039564092238 94.34959782509006 55.55940853259691 H 0.0 **** 0.06
18288 H 66.16650463002685 95.92536711736338 55.377048389151824 H 0.0 **** 0.06
18289 H 65.83154190606035 95.28014066575801 57.00175318744208 H 0.0 **** 0.06
18290 H 64.49150163701606 95.84655813805148 55.97613863152407 H 0.0 **** 0.06
18291 C 75.42382573997061 56.46444899461784 11.998450270502886 C 0.0 **** -0.24
18292 H 76.14750950327459 57.27856362409267 12.027773536282552 H 0.0 **** 0.06
18293 H 74.54920886856044 56.77759509895651 11.426993692291063 H 0.0 **** 0.06
18294 H 75.12258766322388 56.20900956744771 13.014020550696443 H 0.0 **** 0.06
18295 H 75.87596555131049 55.59383264666121 11.523129869571392 H 0.0 **** 0.06
18296 C 104.49653243909631 3.098226811777593 16.322234349374526 C 0.0 **** -0.24
18297 H 103.97152739242352 2.655288886595656 15.475204564145741 H 0.0 **** 0.06
18298 H 105.19654467596064 2.3710369499833206 16.734831640257397 H 0.0 **** 0.06
18299 H 103.77458400229264 3.384463941448459 17.087613017937386 H 0.0 **** 0.06
18300 H 105.04260445678855 3.981086329530882 15.989811226782606 H 0.0 **** 0.06
18301 C 98.71882093854487 47.545089114364906 7.729434342069268 C 0.0 **** -0.24
18302 H 97.91260968199316 47.73849738284466 7.021737115769421 H 0.0 **** 0.06
18303 H 99.20809238997055 48.48411633551562 7.9882084384481775 H 0.0 **** 0.06
18304 H 99.44474847649514 46.86885185221739 7.2780031954540565 H 0.0 **** 0.06
18305 H 98.3090513092535 47.08895484401155 8.63096532566179 H 0.0 **** 0.06
18306 C 29.929931899763233 30.210421865211842 12.094084238847671 C 0.0 **** -0.24
18307 H 30.465015004811107 29.33721475439519 11.720704907818657 H 0.0 **** 0.06
18308 H 29.254224357498344 29.90751728702864 12.893525800529716 H 0.0 **** 0.06
18309 H 29.35695392617606 30.659450293706996 11.282849121115362 H 0.0 **** 0.06
18310 H 30.645883923540566 30.936901436690206 12.478917781374264 H 0.0 **** 0.06
18311 C 85.5768179672335 67.66590976053261 34.85851269490905 C 0.0 **** -0.24
18312 H 85.88687513843163 67.57696301202986 33.81734280827706 H 0.0 **** 0.06
18313 H 86.39808458093077 68.0736359332472 35.44863917666049 H 0.0 **** 0.06
18314 H 85.30769088022905 66.68133000362029 35.24268593845545 H 0.0 **** 0.06
18315 H 84.71571572521464 68.33018598225293 34.92607526959961 H 0.0 **** 0.06
18316 C 47.267188210726715 36.21710654853584 8.86330445139501 C 0.0 **** -0.24
18317 H 46.55815372795627 36.64753411980463 8.15564496648257 H 0.0 **** 0.06
18318 H 46.837885679154056 35.31917179919641 9.307897789634737 H 0.0 **** 0.06
18319 H 47.48380348389492 36.943306927917874 9.64681995444225 H 0.0 **** 0.06
18320 H 48.18925315810014 35.96038640130823 8.341444583277948 H 0.0 **** 0.06
18321 C 69.67578741335285 104.35155936612136 62.70469451364653 C 0.0 **** -0.24
18322 H 70.55285097062333 104.34627699808263 63.35228492833281 H 0.0 **** 0.06
18323 H 68.81140405579185 104.7049271099726 63.2667651044581 H 0.0 **** 0.06
18324 H 69.48631950347357 103.34065741317892 62.343343059473796 H 0.0 **** 0.06
18325 H 69.85391287280044 105.01258819908617 61.856505908218566 H 0.0 **** 0.06
18326 C 67.86326247499065 86.90574657089599 56.91470442718361 C 0.0 **** -0.24
18327 H 67.7141652390298 87.91427680891985 56.531129915047984 H 0.0 **** 0.06
18328 H 68.25200590962788 86.26836160584311 56.11899105674627 H 0.0 **** 0.06
18329 H 66.91252314799175 86.50660972675114 57.26846173220383 H 0.0 **** 0.06
18330 H 68.57548501366625 86.93221024858309 57.739055935618296 H 0.0 **** 0.06
18331 C 37.19479337997072 32.30826576135311 11.050463471205575 C 0.0 **** -0.24
18332 H 36.7813517959311 31.325860305926994 11.276503823984541 H 0.0 **** 0.06
18333 H 37.75771404747019 32.25932293113621 10.117846362013324 H 0.0 **** 0.06
18334 H 37.857203247127785 32.619831843546976 11.858866532937071 H 0.0 **** 0.06
18335 H 36.38325377053246 33.029176828181974 10.947860171481508 H 0.0 **** 0.06
18336 C 29.655135124038168 103.9112146771914 49.036163551616134 C 0.0 **** -0.24
18337 H 30.028598366093433 104.46356597875828 48.17344575991405 H 0.0 **** 0.06
18338 H 28.94696670691266 103.15294527072047 48.702617917250535 H 0.0 **** 0.06
18339 H 29.15625692381795 104.6000510935342 49.718173565487774 H 0.0 **** 0.06
18340 H 30.48918113292774 103.43170981802749 49.54815088867252 H 0.0 **** 0.06
18341 C 49.68827908615456 79.44592560941425 29.239332370188407 C 0.0 **** -0.24
18342 H 49.214704811876885 80.32571861572495 28.80262718096691 H 0.0 **** 0.06
18343 H 50.39900689443589 79.75875711411942 30.003982695740802 H 0.0 **** 0.06
18344 H 50.211569380384574 78.89087740579023 28.46096263053485 H 0.0 **** 0.06
18345 H 48.92633788518457 78.80957811986542 29.68863978425358 H 0.0 **** 0.06
18346 C 94.00949326987467 86.05639652318115 101.99039258692966 C 0.0 **** -0.24
18347 H 93.2605947136953 86.33642174557832 101.24889303880305 H 0.0 **** 0.06
18348 H 93.99327216615353 84.97517076395023 102.13146168971905 H 0.0 **** 0.06
18349 H 93.7852449364076 86.54999638111813 102.93572403588165 H 0.0 **** 0.06
18350 H 94.99547669394906 86.36364786710006 101.64393488795449 H 0.0 **** 0.06
18351 C 86.54843034371814 27.745395904464544 103.43266722072673 C 0.0 **** -0.24
18352 H 85.80097900299555 27.04169188141327 103.06675489056028 H 0.0 **** 0.06
18353 H 87.39439728081635 27.766810631535463 102.74553399797037 H 0.0 **** 0.06
18354 H 86.88897341608256 27.43294516010485 104.41965690606327 H 0.0 **** 0.06
18355 H 86.10728756478474 28.740298244767928 103.49792912756857 H 0.0 **** 0.06
18356 C 62.10286100703409 92.5802379705731 77.27420946073909 C 0.0 **** -0.24
18357 H 61.49073801107605 93.17525546849728 76.59528060208771 H 0.0 **** 0.06
18358 H 61.46749118143484 92.13505803359244 78.03988740710281 H 0.0 **** 0.06
18359 H 62.847864558700834 93.22111058806237 77.74710560387399 H 0.0 **** 0.06
18360 H 62.60436459650599 91.7914489431598 76.71398298715849 H 0.0 **** 0.06
18361 C 72.68509684781935 56.87900012489055 20.977492644267926 C 0.0 **** -0.24
18362 H 73.70647106423559 57.202139066049746 21.17934074106597 H 0.0 **** 0.06
18363 H 71.98496619482813 57.57865277183996 21.434837136462136 H 0.0 **** 0.06
18364 H 72.52957137780515 55.884065821864624 21.396220871854894 H 0.0 **** 0.06
18365 H 72.52003033486614 56.85021935965 19.900884369288775 H 0.0 **** 0.06
18366 C 101.25235216441618 41.14703234107611 105.4731781546937 C 0.0 **** -0.24
18367 H 102.13390714581467 41.6017731648181 105.01993720004553 H 0.0 **** 0.06
18368 H 101.30285574421663 41.260413734715485 106.55627315219348 H 0.0 **** 0.06
18369 H 101.21942421984434 40.08717420791277 105.21945147968299 H 0.0 **** 0.06
18370 H 100.35597208207375 41.63941858783272 105.09694124620101 H 0.0 **** 0.06
18371 C 86.8791214352056 94.20018294006418 21.275483424368446 C 0.0 **** -0.24
18372 H 86.57282741094345 94.9446551004645 20.540412071809072 H 0.0 **** 0.06
18373 H 86.75230572328357 93.20214491643718 20.85605692917622 H 0.0 **** 0.06
18374 H 86.26608723279718 94.29947643904929 22.170648506243936 H 0.0 **** 0.06
18375 H 87.9271567913367 94.35524862738606 21.533925455477544 H 0.0 **** 0.06
18376 C 86.40772642321774 16.03066231329177 76.57590972017078 C 0.0 **** -0.24
18377 H 86.66897027613201 16.11653776195837 75.52144647430656 H 0.0 **** 0.06
18378 H 85.7651685487153 16.863673363980013 76.86015020037557 H 0.0 **** 0.06
18379 H 87.31659172012213 16.049478171096155 77.17792265642044 H 0.0 **** 0.06
18380 H 85.88035306442474 15.091284250671578 76.74371893123046 H 0.0 **** 0.06
18381 C 82.93638841480691 80.4715860343149 75.0544903810744 C 0.0 **** -0.24
18382 H 82.97246078117661 79.83976035551444 75.9426547016136 H 0.0 **** 0.06
18383 H 83.79257324035655 80.24989809167137 74.41770965841266 H 0.0 **** 0.06
18384 H 82.96645174948242 81.51918572892895 75.35371399957347 H 0.0 **** 0.06
18385 H 82.01471820010681 80.27597616197494 74.50675642713941 H 0.0 **** 0.06
18386 C 74.50167633586389 12.670400424602633 91.58665617573446 C 0.0 **** -0.24
18387 H 73.78268352950487 11.903312213826894 91.29837723801796 H 0.0 **** 0.06
18388 H 75.50477619318767 12.353586903131799 91.30204494575696 H 0.0 **** 0.06
18389 H 74.45923232329906 12.82021564179206 92.66592567787762 H 0.0 **** 0.06
18390 H 74.25670911387732 13.604225208301216 91.08128402552755 H 0.0 **** 0.06
18391 C 58.72338930930317 48.09524503912991 6.201293540259371 C 0.0 **** -0.24
18392 H 59.1095353406788 48.09280088799113 7.22112000813226 H 0.0 **** 0.06
18393 H 59.22823337318755 48.87101556891497 5.624737983830528 H 0.0 **** 0.06
18394 H 57.65240586201901 48.29268456721775 6.218343809406377 H 0.0 **** 0.06
18395 H 58.906916742833516 47.12382582172319 5.742013559813245 H 0.0 **** 0.06
18396 C 103.15025356058287 101.91875471214833 71.08219538452474 C 0.0 **** -0.24
18397 H 103.64013231182544 102.25146177663407 70.1668525279014 H 0.0 **** 0.06
18398 H 103.75499737801614 101.14521676762253 71.55695609695326 H 0.0 **** 0.06
18399 H 102.16680244567618 101.51574194938456 70.84221562977248 H 0.0 **** 0.06
18400 H 103.0406950272147 102.7630417792294 71.76230783844241 H 0.0 **** 0.06
18401 C 68.92827950203213 0.6625655538942681 37.45946706788882 C 0.0 **** -0.24
18402 H 68.96111356507481 -0.42029795617449395 37.33500703852451 H 0.0 **** 0.06
18403 H 67.94962641778318 0.9547735532315045 37.839908026463775 H 0.0 **** 0.06
18404 H 69.10362252621604 1.1443224734416333 36.49826275075952 H 0.0 **** 0.06
18405 H 69.6993669502292 0.9697435116037667 38.16632319099588 H 0.0 **** 0.06
18406 C 84.95136213758451 49.94664741115932 27.825848811890644 C 0.0 **** -0.24
18407 H 84.67251695904736 50.55607642439597 26.966785771401494 H 0.0 **** 0.06
18408 H 84.23180099515594 50.10197753314159 28.629809650186573 H 0.0 **** 0.06
18409 H 85.94606582075346 50.23400896879966 28.166895194926486 H 0.0 **** 0.06
18410 H 84.95576569529567 48.895465807339065 27.539112851314766 H 0.0 **** 0.06
18411 C 73.79142486881369 85.64910752871623 99.02316676381643 C 0.0 **** -0.24
18412 H 72.7754950607474 85.69430983413326 98.63163125559431 H 0.0 **** 0.06
18413 H 73.76389071422244 85.70638384295623 100.11177047830962 H 0.0 **** 0.06
18414 H 74.36996930912278 86.48389494976362 98.62963414318395 H 0.0 **** 0.06
18415 H 74.25504558822212 84.71004604561523 98.71993072410436 H 0.0 **** 0.06
18416 C 0.447414121149734 40.15941533943325 88.33558758731999 C 0.0 **** -0.24
18417 H 1.4924349253154503 40.205285867843315 88.64075161484313 H 0.0 **** 0.06
18418 H 0.20326950076204753 39.142897105780094 88.02812415502986 H 0.0 **** 0.06
18419 H 0.2830991031644601 40.841863477794504 87.50135809438429 H 0.0 **** 0.06
18420 H -0.18825011312577544 40.44989425413877 89.17209741567554 H 0.0 **** 0.06
18421 C 28.26016186820827 57.35629390769893 57.67695424137331 C 0.0 **** -0.24
18422 H 27.77782652221586 56.46410432943799 57.278832358165026 H 0.0 **** 0.06
18423 H 27.506580913942884 58.11765524203436 57.87832050287652 H 0.0 **** 0.06
18424 H 28.976779454231746 57.73742348229828 56.94845972896767 H 0.0 **** 0.06
18425 H 28.78037564412911 57.10695478016266 58.60171763188795 H 0.0 **** 0.06
18426 C 81.71024841893166 79.24935919958827 14.862581205381616 C 0.0 **** -0.24
18427 H 81.86056380303106 79.03884087395974 15.92105935332522 H 0.0 **** 0.06
18428 H 81.30298027631085 80.25412502096111 14.74541867018732 H 0.0 **** 0.06
18429 H 81.01202215612987 78.523549267861 14.443910922959049 H 0.0 **** 0.06
18430 H 82.66344560401657 79.18000858134008 14.339447114033405 H 0.0 **** 0.06
18431 C 58.67577746207684 72.94179299903175 50.232812812893144 C 0.0 **** -0.24
18432 H 58.28765825613664 73.37241800687258 49.30824241486607 H 0.0 **** 0.06
18433 H 59.67502029779979 72.54342810180691 50.05583007458273 H 0.0 **** 0.06
18434 H 58.016799137782925 72.13885455523331 50.56347448277967 H 0.0 **** 0.06
18435 H 58.722333632396214 73.71350257690904 51.00066274652744 H 0.0 **** 0.06
18436 C 45.602286981563225 16.279938203553314 106.38425795904263 C 0.0 **** -0.24
18437 H 46.550461837606576 15.754632950368759 106.2663148500708 H 0.0 **** 0.06
18438 H 45.21194044258556 16.547871535739986 105.40178960018721 H 0.0 **** 0.06
18439 H 45.75838983953605 17.18313035789825 106.9727912744473 H 0.0 **** 0.06
18440 H 44.88900628485476 15.631822535404524 106.894317246037 H 0.0 **** 0.06
18441 C 103.76503344460556 77.5327339102473 71.042290668194 C 0.0 **** -0.24
18442 H 103.90993456050538 76.72657814949156 71.76185184597466 H 0.0 **** 0.06
18443 H 104.73653624495793 77.87671358313644 70.6840531631729 H 0.0 **** 0.06
18444 H 103.24047097103639 78.35828285177041 71.52171406349427 H 0.0 **** 0.06
18445 H 103.17621938663089 77.16716995311207 70.20135744952933 H 0.0 **** 0.06
18446 C 48.68740212418107 65.63655582372718 32.71483721325214 C 0.0 **** -0.24
18447 H 48.499322584371264 64.6402218149679 33.11335481673865 H 0.0 **** 0.06
18448 H 49.748739592891305 65.74414467700126 32.4902751082426 H 0.0 **** 0.06
18449 H 48.39382224380471 66.38448728514072 33.451818297886916 H 0.0 **** 0.06
18450 H 48.10686365973224 65.77818922188217 31.802640508005084 H 0.0 **** 0.06
18451 C 11.589371792783396 20.077303504787096 55.678247360917965 C 0.0 **** -0.24
18452 H 10.678587489652955 19.987687502959744 56.27001472764141 H 0.0 **** 0.06
18453 H 11.655743536302793 19.23795927398038 54.98523595391285 H 0.0 **** 0.06
18454 H 12.454771042568552 20.070989308462487 56.34103313553078 H 0.0 **** 0.06
18455 H 11.568044111829906 21.011969044505264 55.1179356962098 H 0.0 **** 0.06
18456 C 55.48495292671692 106.5530589045373 52.50964216752453 C 0.0 **** -0.24
18457 H 55.60901406317001 106.57163230854559 53.59182492147261 H 0.0 **** 0.06
18458 H 56.22732682754926 105.88591303631526 52.07045868152392 H 0.0 **** 0.06
18459 H 55.61965070076996 107.55873998560523 52.11158843410146 H 0.0 **** 0.06
18460 H 54.48497247153519 106.19626377376082 52.26393907517257 H 0.0 **** 0.06
18461 C 14.662469842049575 106.60030266768109 27.855512088501005 C 0.0 **** -0.24
18462 H 15.483173299871495 106.49409639398303 28.564067458912206 H 0.0 **** 0.06
18463 H 15.048403352842598 106.97348464200446 26.906066293247427 H 0.0 **** 0.06
18464 H 13.930175990450437 107.30404530731194 28.251558463607097 H 0.0 **** 0.06
18465 H 14.18837731823092 105.63096074591131 27.70056294079251 H 0.0 **** 0.06
18466 C 76.96375581215574 2.262342294519371 61.77354122627304 C 0.0 **** -0.24
18467 H 76.04032237112938 2.7295464776142637 62.117418663587586 H 0.0 **** 0.06
18468 H 77.7722545714476 2.993469081235361 61.79975424082592 H 0.0 **** 0.06
18469 H 76.82972491475203 1.9043208802155789 60.75197176291407 H 0.0 **** 0.06
18470 H 77.20966635903034 1.4227066329220008 62.42296760785662 H 0.0 **** 0.06
18471 C 68.78664533392572 48.98727939059076 75.06255426421606 C 0.0 **** -0.24
18472 H 68.08377774488629 49.03291372118315 74.2299947043339 H 0.0 **** 0.06
18473 H 68.23459963489688 48.98941998565035 76.00293010166567 H 0.0 **** 0.06
18474 H 69.44794207194305 49.85244456835773 75.02650566279928 H 0.0 **** 0.06
18475 H 69.37741232940819 48.07475800503519 74.98948076472618 H 0.0 **** 0.06
18476 C 5.652843781245167 86.81587844208008 81.26144031260745 C 0.0 **** -0.24
18477 H 5.983210439654499 86.38467201702451 82.20656866823327 H 0.0 **** 0.06
18478 H 5.0607322088962405 86.08301314842464 80.71387385313457 H 0.0 **** 0.06
18479 H 6.522343202894035 87.09796458839224 80.66824739255415 H 0.0 **** 0.06
18480 H 5.045772775920682 87.69954788458057 81.45871379876289 H 0.0 **** 0.06
18481 C 47.97335844611899 101.03985465427235 6.545423534194299 C 0.0 **** -0.24
18482 H 48.93231028380285 100.57345669499477 6.320130362367848 H 0.0 **** 0.06
18483 H 48.08577829577041 102.12381248444956 6.540335778954272 H 0.0 **** 0.06
18484 H 47.63254878795277 100.71391522044527 7.528350280933836 H 0.0 **** 0.06
18485 H 47.241508361034334 100.7473224575522 5.791293468156823 H 0.0 **** 0.06
18486 C 92.73468545074212 37.55109172687716 3.7250582090105695 C 0.0 **** -0.24
18487 H 92.20599628461447 37.25238483395617 2.8195844717482714 H 0.0 **** 0.06
18488 H 93.62732143605777 36.936932792444225 3.8435086394769087 H 0.0 **** 0.06
18489 H 92.08276463544622 37.41664301497286 4.58770440636232 H 0.0 **** 0.06
18490 H 93.02191507584887 38.60010864350269 3.6468763570264286 H 0.0 **** 0.06
18491 C 20.201649407103815 84.24916963309903 77.39268073480483 C 0.0 **** -0.24
18492 H 21.26113742779819 84.00806960838489 77.3030333924994 H 0.0 **** 0.06
18493 H 19.68689314947143 83.97493719157221 76.47139993674216 H 0.0 **** 0.06
18494 H 20.085468710135174 85.31794040686547 77.57020467223231 H 0.0 **** 0.06
18495 H 19.772560860177393 83.6933788322661 78.22650584852198 H 0.0 **** 0.06
18496 C 78.5357921294187 6.198786197788099 75.91497150942189 C 0.0 **** -0.24
18497 H 78.61980444635691 5.967520908275834 76.9767431395033 H 0.0 **** 0.06
18498 H 78.61344026755603 7.276459487111589 75.77047319121212 H 0.0 **** 0.06
18499 H 77.57282697427227 5.849693928074947 75.54249950340167 H 0.0 **** 0.06
18500 H 79.33915972991072 5.700441875651759 75.37099888720047 H 0.0 **** 0.06
18501 C 40.769329037226356 88.50203797581332 40.34714108249881 C 0.0 **** -0.24
18502 H 39.69056046154401 88.48019001998131 40.49514663354856 H 0.0 **** 0.06
18503 H 41.115593979069956 89.53616580105552 40.3569389827334 H 0.0 **** 0.06
18504 H 41.01391569791036 88.0456755419712 39.387654016722315 H 0.0 **** 0.06
18505 H 41.25813696886135 87.94745780713407 41.148178130368 H 0.0 **** 0.06
18506 C 22.254690147860003 17.569419284397526 69.3031826695985 C 0.0 **** -0.24
18507 H 22.542769304156593 16.61886289817673 69.75314345173274 H 0.0 **** 0.06
18508 H 22.379410109325192 18.369640631763502 70.03371090435034 H 0.0 **** 0.06
18509 H 21.210785934604928 17.52149939770237 68.99202287170947 H 0.0 **** 0.06
18510 H 22.88406756398541 17.766663786681548 68.4358520844378 H 0.0 **** 0.06
18511 C 22.522052412610503 22.491275822233973 9.455824262999585 C 0.0 **** -0.24
18512 H 23.539608114949598 22.316971319220897 9.802348342719398 H 0.0 **** 0.06
18513 H 21.830060543773836 22.386846044560286 10.29205893445635 H 0.0 **** 0.06
18514 H 22.27098258170915 21.76398520075307 8.684132633367796 H 0.0 **** 0.06
18515 H 22.445474603491054 23.49781594904482 9.045383658974146 H 0.0 **** 0.06
18516 C 68.5984183145359 68.14083387913038 8.150579013514841 C 0.0 **** -0.24
18517 H 69.19142189807724 67.23385737620737 8.262212416846115 H 0.0 **** 0.06
18518 H 68.94473785562995 68.8917371800772 8.861322113600218 H 0.0 **** 0.06
18519 H 67.54972533668611 67.91389737448418 8.343831675633973 H 0.0 **** 0.06
18520 H 68.70575843264477 68.52325841878445 7.135683322764232 H 0.0 **** 0.06
18521 C 17.41369455907569 50.238432005096584 16.70440176826179 C 0.0 **** -0.24
18522 H 17.023929013525578 49.3775246979333 16.16068294096435 H 0.0 **** 0.06
18523 H 17.452246517190698 51.100962584256294 16.039749669337453 H 0.0 **** 0.06
18524 H 18.41593613302855 50.01343749381937 17.068517114877864 H 0.0 **** 0.06
18525 H 16.760526804502355 50.45890736069838 17.548846686215654 H 0.0 **** 0.06
18526 C 52.1796979518208 48.416969685675525 68.67187238229423 C 0.0 **** -0.24
18527 H 52.575896705565754 47.47101281627445 68.30479911361982 H 0.0 **** 0.06
18528 H 51.339788083221435 48.72429935831457 68.04997566611712 H 0.0 **** 0.06
18529 H 52.959756670017896 49.17730697631862 68.63263834364983 H 0.0 **** 0.06
18530 H 51.844090579112276 48.29409153789962 69.70209828239229 H 0.0 **** 0.06
18531 C 54.95115888248887 46.57997493604992 103.50736242482157 C 0.0 **** -0.24
18532 H 55.46421446398762 47.46050045149417 103.89443542418996 H 0.0 **** 0.06
18533 H 54.093079172230404 46.35279984551258 104.13965616829296 H 0.0 **** 0.06
18534 H 55.635772900799196 45.73236421262004 103.50384518271431 H 0.0 **** 0.06
18535 H 54.61107158374881 46.77635942057282 102.49039905954407 H 0.0 **** 0.06
18536 C 2.175711192893587 44.75021659297552 66.48808421937775 C 0.0 **** -0.24
18537 H 2.041905641766917 45.004001947078656 65.43576399775307 H 0.0 **** 0.06
18538 H 1.278909824357811 45.02468006989611 67.04426570969719 H 0.0 **** 0.06
18539 H 3.032212513975736 45.295879506828186 66.88581182015307 H 0.0 **** 0.06
18540 H 2.3506811527414015 43.679020520495655 66.58351562075043 H 0.0 **** 0.06
18541 C 38.8678951909106 97.57124130377436 9.08197599138839 C 0.0 **** -0.24
18542 H 37.90382693208597 97.7448584431385 9.559511504067359 H 0.0 **** 0.06
18543 H 39.52024968705404 98.42730129812085 9.257542664109621 H 0.0 **** 0.06
18544 H 38.72319205586351 97.43927564312553 8.00865177233743 H 0.0 **** 0.06
18545 H 39.32355680662785 96.674068244259 9.500163353032235 H 0.0 **** 0.06
18546 C 32.72991290483847 46.42123872051367 7.284447420167169 C 0.0 **** -0.24
18547 H 33.55054243880301 46.3520481633816 6.569712793601411 H 0.0 **** 0.06
18548 H 31.91710489620897 47.00206282738952 6.846836553791263 H 0.0 **** 0.06
18549 H 33.079142364233235 46.91186426648238 8.192434215289893 H 0.0 **** 0.06
18550 H 32.373440841508426 45.419767320322215 7.5257986528974925 H 0.0 **** 0.06
18551 C 28.531484000069526 72.18515695577764 100.82866733152231 C 0.0 **** -0.24
18552 H 28.278281089311577 72.25961871088732 101.88543616274899 H 0.0 **** 0.06
18553 H 29.615566841214587 72.15721425674029 100.71554642682689 H 0.0 **** 0.06
18554 H 28.13445930249489 73.05074538108818 100.29791334297366 H 0.0 **** 0.06
18555 H 28.09821021882982 71.27526859007563 100.4138400404689 H 0.0 **** 0.06
18556 C 91.56465738265712 51.07290439132912 9.51904848468331 C 0.0 **** -0.24
18557 H 91.66398395327894 50.01159657117711 9.289874575107433 H 0.0 **** 0.06
18558 H 92.24671682487445 51.33398620148854 10.327699135642206 H 0.0 **** 0.06
18559 H 90.53986239953866 51.28443838486703 9.823233117337452 H 0.0 **** 0.06
18560 H 91.8093475905639 51.659101004791815 8.632910815283367 H 0.0 **** 0.06
18561 C 100.11414831447235 100.53745854092043 94.67777936923312 C 0.0 **** -0.24
18562 H 99.5383931211851 100.83364989256978 95.5557727858728 H 0.0 **** 0.06
18563 H 101.17448706802065 100.5141656199967 94.92999136702169 H 0.0 **** 0.06
18564 H 99.94592711027616 101.25472600883296 93.87465503369233 H 0.0 **** 0.06
18565 H 99.79510821296464 99.54639868621368 94.35315413369602 H 0.0 **** 0.06
18566 C 75.77605508648591 92.06749749308625 44.038597864246356 C 0.0 **** -0.24
18567 H 75.7168952849278 91.23714869684545 44.742107418283496 H 0.0 **** 0.06
18568 H 74.78291129015605 92.27844019893314 43.64261268720654 H 0.0 **** 0.06
18569 H 76.44525188290717 91.80252978567023 43.219573748252714 H 0.0 **** 0.06
18570 H 76.16030061466239 92.95074988768255 44.549429849952446 H 0.0 **** 0.06
18571 C 92.72158779032239 56.840757139031595 82.70949668495129 C 0.0 **** -0.24
18572 H 93.55622966285496 56.3546812242946 82.2058521816324 H 0.0 **** 0.06
18573 H 92.80126071086431 56.675487308627424 83.78497793460136 H 0.0 **** 0.06
18574 H 91.78298129409548 56.42156713145234 82.34562124425426 H 0.0 **** 0.06
18575 H 92.74617954575093 57.9106534259145 82.50388087038769 H 0.0 **** 0.06
18576 C 41.318887043160515 83.5282083840427 21.9875300363409 C 0.0 **** -0.24
18577 H 41.66245959364443 83.37347598203561 20.964931642701146 H 0.0 **** 0.06
18578 H 42.15465718947445 83.85844342273074 22.605346224613925 H 0.0 **** 0.06
18579 H 40.92087256264085 82.59396487783991 22.38220610695663 H 0.0 **** 0.06
18580 H 40.53779524521187 84.28878956805497 21.996889489672554 H 0.0 **** 0.06
18581 C 80.17470758439097 41.12018917831649 31.260580952288137 C 0.0 **** -0.24
18582 H 79.5407404730389 41.925238648470405 30.889041240182223 H 0.0 **** 0.06
18583 H 81.19752875454027 41.482073270318544 31.36590174952636 H 0.0 **** 0.06
18584 H 80.15419444333146 40.28788684743585 30.556180636600686 H 0.0 **** 0.06
18585 H 79.80498539615478 40.78466633671907 32.229684480668595 H 0.0 **** 0.06
18586 C 28.09453050534063 101.8714861014577 22.396026051848366 C 0.0 **** -0.24
18587 H 28.667192069599537 101.26938072790972 21.6908668203981 H 0.0 **** 0.06
18588 H 27.52161933814287 102.62263678586397 21.852112308661106 H 0.0 **** 0.06
18589 H 28.776124144956242 102.36578306138742 23.08901117457313 H 0.0 **** 0.06
18590 H 27.413825131989086 101.22878161798509 22.953202677655952 H 0.0 **** 0.06
18591 C 33.38766318126159 74.24089712801899 2.0899717274886456 C 0.0 **** -0.24
18592 H 33.68794460872846 74.78755561223662 2.984388472574892 H 0.0 **** 0.06
18593 H 33.6794316614488 73.19560237206022 2.187637984974174 H 0.0 **** 0.06
18594 H 33.87680343126772 74.67604469260837 1.218191282869995 H 0.0 **** 0.06
18595 H 32.30550541288096 74.30704999306374 1.970652229374025 H 0.0 **** 0.06
18596 C 86.64619006715085 48.94275327233433 12.857419042952614 C 0.0 **** -0.24
18597 H 86.66596284866714 48.00567327551562 12.301358968866339 H 0.0 **** 0.06
18598 H 86.09262049485685 49.69014801745688 12.289818400154672 H 0.0 **** 0.06
18599 H 87.66648698510849 49.29000130915997 13.019560021729205 H 0.0 **** 0.06
18600 H 86.16069154315997 48.78252189745168 13.81987464120698 H 0.0 **** 0.06
18601 C 55.04068558597854 11.83400475460732 37.97089997302953 C 0.0 **** -0.24
18602 H 56.046046088323436 11.724468045927566 37.5645126360468 H 0.0 **** 0.06
18603 H 54.839056107490336 12.888439991436243 38.16003114232433 H 0.0 **** 0.06
18604 H 54.96313836717877 11.275833510322897 38.903053889210526 H 0.0 **** 0.06
18605 H 54.31604993378656 11.448106530664603 37.253569880649366 H 0.0 **** 0.06
18606 C 90.17997092590325 88.06847959130336 105.38955953567245 C 0.0 **** -0.24
18607 H 90.4097381934823 87.2489543817237 104.70906992351902 H 0.0 **** 0.06
18608 H 90.04132572331808 88.98726114240998 104.81711057418423 H 0.0 **** 0.06
18609 H 91.00265871111075 88.19864013825881 106.09208619739707 H 0.0 **** 0.06
18610 H 89.26633489987164 87.84059198889857 105.93739628086007 H 0.0 **** 0.06
18611 C 54.167170717572276 97.77929805602636 33.1601200121254 C 0.0 **** -0.24
18612 H 55.22800053143342 97.81253751438766 33.41001396755595 H 0.0 **** 0.06
18613 H 54.052220775699 97.56223605134198 32.09777009719831 H 0.0 **** 0.06
18614 H 53.71009356281246 98.74178213547779 33.38699777050673 H 0.0 **** 0.06
18615 H 53.68068984543373 96.99875831328407 33.74598418256933 H 0.0 **** 0.06
18616 C 26.999346388534377 9.649477761544274 34.04656033991682 C 0.0 **** -0.24
18617 H 26.701747430315535 10.48959948533732 34.67416695539063 H 0.0 **** 0.06
18618 H 27.531670690147934 10.022437319991067 33.17111316929561 H 0.0 **** 0.06
18619 H 26.11306477410291 9.101520132223932 33.728297877624925 H 0.0 **** 0.06
18620 H 27.652519908416053 8.986186411488545 34.6144033535696 H 0.0 **** 0.06
18621 C 45.83220304222201 13.053758656139507 20.898859926974325 C 0.0 **** -0.24
18622 H 46.493281494625755 13.91250190919348 20.777517179399467 H 0.0 **** 0.06
18623 H 46.42936870584457 12.149007334235051 21.013061190334838 H 0.0 **** 0.06
18624 H 45.193127311850006 12.960103581829031 20.02133237434191 H 0.0 **** 0.06
18625 H 45.21359191356923 13.194731963225593 21.786169673868784 H 0.0 **** 0.06
18626 C 44.13681455538307 104.96417443966095 52.509052080510166 C 0.0 **** -0.24
18627 H 43.47736010753056 104.70879765914827 53.338615366997686 H 0.0 **** 0.06
18628 H 45.17409348840843 104.87082510948557 52.82849215394069 H 0.0 **** 0.06
18629 H 43.94347169455975 105.99030192419679 52.19447826573736 H 0.0 **** 0.06
18630 H 43.94967161348586 104.28753453583113 51.675779240494634 H 0.0 **** 0.06
18631 C 24.12844454589697 12.506978098913464 0.7377721982072103 C 0.0 **** -0.24
18632 H 23.12706557488076 12.106933026620624 0.5752918789394812 H 0.0 **** 0.06
18633 H 24.705218268501028 11.806319246963824 1.3425978039240931 H 0.0 **** 0.06
18634 H 24.058258845009817 13.46282234782936 1.25498526170432 H 0.0 **** 0.06
18635 H 24.621842664535308 12.649004760627747 -0.22352817792921087 H 0.0 **** 0.06
18636 C 29.95020276875772 79.66446299483152 31.20583458842063 C 0.0 **** -0.24
18637 H 30.999298990626528 79.61870115980021 31.497613042926517 H 0.0 **** 0.06
18638 H 29.84433863108646 80.30381893325273 30.32920896029124 H 0.0 **** 0.06
18639 H 29.36259001521742 80.07355147657283 32.028358523162424 H 0.0 **** 0.06
18640 H 29.594618264733384 78.66123041844342 30.97032497449682 H 0.0 **** 0.06
18641 C 104.44786189045921 81.23682699991339 22.449532523484635 C 0.0 **** -0.24
18642 H 104.14170246063826 81.41972276197038 23.47928017522149 H 0.0 **** 0.06
18643 H 105.08199344452046 80.35024854922278 22.411643234679133 H 0.0 **** 0.06
18644 H 105.00353814067023 82.0970472902646 22.076532987006217 H 0.0 **** 0.06
18645 H 103.56463649215638 81.07788295985648 21.830848116027852 H 0.0 **** 0.06
18646 C 55.27306929808906 11.856456202132827 101.8762817569596 C 0.0 **** -0.24
18647 H 56.013685323973995 11.057410640590106 101.83058881688486 H 0.0 **** 0.06
18648 H 54.48858586056542 11.58369239346795 102.58253763951997 H 0.0 **** 0.06
18649 H 54.83751021795111 12.004832373201143 100.88827087788107 H 0.0 **** 0.06
18650 H 55.753206791584994 12.777773569134897 102.20386371281155 H 0.0 **** 0.06
18651 C 61.54038531764361 12.963988566080047 59.284688841560694 C 0.0 **** -0.24
18652 H 61.42647669406671 13.236766927262806 60.33378154133152 H 0.0 **** 0.06
18653 H 60.5677455838765 12.998270239256385 58.792696488229694 H 0.0 **** 0.06
18654 H 61.948976606564756 11.956440347349627 59.21341885962249 H 0.0 **** 0.06
18655 H 62.218517831475324 13.665863400261628 58.798642807615124 H 0.0 **** 0.06
18656 C 7.491378429301118 19.383929216792552 65.25384629532886 C 0.0 **** -0.24
18657 H 7.9475207501022265 18.691386161116014 64.54676215208451 H 0.0 **** 0.06
18658 H 8.243260749845106 20.08864668880335 65.60898988172937 H 0.0 **** 0.06
18659 H 7.087074066724844 18.82654260224308 66.09870772998738 H 0.0 **** 0.06
18660 H 6.686311658251025 19.928953880822178 64.7591500246819 H 0.0 **** 0.06
18661 C 8.256082157256827 28.66911114506661 83.62018237334257 C 0.0 **** -0.24
18662 H 7.69028727958181 28.469933395721654 82.70938429186896 H 0.0 **** 0.06
18663 H 8.758839002557636 29.63319930529751 83.53118026417968 H 0.0 **** 0.06
18664 H 8.99724041775795 27.884448724772398 83.76634648239559 H 0.0 **** 0.06
18665 H 7.575990057794485 28.69027236614494 84.47178712374009 H 0.0 **** 0.06
18666 C 84.87286238500874 78.71414777615121 22.84931574163545 C 0.0 **** -0.24
18667 H 84.49039019199901 77.72686204387767 23.110441501463626 H 0.0 **** 0.06
18668 H 84.29846004018671 79.47651528796303 23.375967855450384 H 0.0 **** 0.06
18669 H 84.77848841798547 78.8658564733168 21.77396894102675 H 0.0 **** 0.06
18670 H 85.92179119706498 78.78445055926072 23.136471714029 H 0.0 **** 0.06
18671 C 33.17852239569922 106.95779594354809 37.40346015631306 C 0.0 **** -0.24
18672 H 33.97926810644154 106.27930195978394 37.108736655147965 H 0.0 **** 0.06
18673 H 32.96935471037523 106.83170520235097 38.466079441022 H 0.0 **** 0.06
18674 H 32.28151697334417 106.73199381909211 36.8264017510252 H 0.0 **** 0.06
18675 H 33.4844092728388 107.98583513479974 37.21209584792058 H 0.0 **** 0.06
18676 C 38.01646069095338 16.550003486985474 66.23221068811176 C 0.0 **** -0.24
18677 H 38.84348912234273 16.58405481446414 65.52301382705926 H 0.0 **** 0.06
18678 H 38.39073870055776 16.258933969202758 67.21349464149661 H 0.0 **** 0.06
18679 H 37.27874886637392 15.822158028626575 65.89353239457022 H 0.0 **** 0.06
18680 H 37.55270570428675 17.53448893797372 66.29583007803252 H 0.0 **** 0.06
18681 C 15.54713842183989 66.36470183243665 81.83040661796456 C 0.0 **** -0.24
18682 H 15.498943561622838 66.06767840885351 82.87841190586815 H 0.0 **** 0.06
18683 H 16.2731931253835 67.16939772374866 81.71402877074176 H 0.0 **** 0.06
18684 H 14.56564477874413 66.70961043828191 81.50622772237409 H 0.0 **** 0.06
18685 H 15.850627170434734 65.51034758823567 81.22515698043641 H 0.0 **** 0.06
18686 C 105.80224371459536 102.7377343285046 4.008970139500548 C 0.0 **** -0.24
18687 H 106.39922734011182 101.88132343356502 4.3219487690079745 H 0.0 **** 0.06
18688 H 104.90864258129486 102.80342141605132 4.630837484941026 H 0.0 **** 0.06
18689 H 105.51081735059655 102.61643759604007 2.965885068975396 H 0.0 **** 0.06
18690 H 106.38926478772346 103.64971271731137 4.119434629984227 H 0.0 **** 0.06
18691 C 98.8322380354868 33.77605069108708 8.792989811992882 C 0.0 **** -0.24
18692 H 99.06478929461719 34.55920118693706 8.071533014334733 H 0.0 **** 0.06
18693 H 98.18948106815043 33.030485547381275 8.32463544130367 H 0.0 **** 0.06
18694 H 98.31843498685464 34.21251927291917 9.649189722846785 H 0.0 **** 0.06
18695 H 99.75644562520603 33.30330479424546 9.126101473213026 H 0.0 **** 0.06
18696 C 3.4823519228018256 77.87684093802221 81.86573456769023 C 0.0 **** -0.24
18697 H 4.384908700278089 78.06060110032064 82.44861549426724 H 0.0 **** 0.06
18698 H 3.605766181262311 78.29406051404379 80.86570031232364 H 0.0 **** 0.06
18699 H 2.631096150992988 78.34992941192539 82.35444775214864 H 0.0 **** 0.06
18700 H 3.309735141494599 76.80277426208772 81.79340231462912 H 0.0 **** 0.06
18701 C 72.83066432732619 41.10888788486689 99.5901871390081 C 0.0 **** -0.24
18702 H 73.43201680218564 41.90209686822511 99.14602678946869 H 0.0 **** 0.06
18703 H 72.24493541404783 41.51654171280393 100.41497788226792 H 0.0 **** 0.06
18704 H 73.48570653423866 40.32217836659022 99.9636928558059 H 0.0 **** 0.06
18705 H 72.15919970163614 40.69684653872493 98.83700065149918 H 0.0 **** 0.06
18706 C 50.757277863258594 66.3690623687879 87.58320886336446 C 0.0 **** -0.24
18707 H 50.08780587089478 66.68792415278531 88.38189848151296 H 0.0 **** 0.06
18708 H 51.62463194013242 67.02839400431324 87.5512181719912 H 0.0 **** 0.06
18709 H 50.23067725709325 66.41343297411865 86.62990159032984 H 0.0 **** 0.06
18710 H 51.08446679539048 65.34616534964772 87.77106206097562 H 0.0 **** 0.06
18711 C 9.233227659041631 45.02409089230841 27.917222978159685 C 0.0 **** -0.24
18712 H 10.10624667687182 44.375363773728054 28.00028145467283 H 0.0 **** 0.06
18713 H 9.48949905981874 45.903295644795804 27.325061060928448 H 0.0 **** 0.06
18714 H 8.916015904573328 45.33470813663416 28.912022090795716 H 0.0 **** 0.06
18715 H 8.423533814756354 44.48101580686992 27.429980707953916 H 0.0 **** 0.06
18716 C 60.97816016589718 44.890302074689544 71.95324311228171 C 0.0 **** -0.24
18717 H 60.41753025237233 45.337421631155024 72.7750721575524 H 0.0 **** 0.06
18718 H 60.49755766121956 45.1419635362889 71.00692206299507 H 0.0 **** 0.06
18719 H 60.999362993116506 43.80766278829802 72.07487899687814 H 0.0 **** 0.06
18720 H 61.99759775482357 45.27724765513614 71.95812868535047 H 0.0 **** 0.06
18721 C 65.84862819877321 100.70196682827262 84.25055082704279 C 0.0 **** -0.24
18722 H 65.1552109349027 100.08788162100568 83.67658259637568 H 0.0 **** 0.06
18723 H 65.4481935986957 101.71233955950424 84.342075961533 H 0.0 **** 0.06
18724 H 66.81077057396749 100.73692756639555 83.73979991877758 H 0.0 **** 0.06
18725 H 65.9783953523746 100.2716107366338 85.2430878716047 H 0.0 **** 0.06
18726 C 23.344142289015856 43.19450207133324 84.192609214594 C 0.0 **** -0.24
18727 H 24.205189283770665 43.726739775358 83.78822596665555 H 0.0 **** 0.06
18728 H 23.687123544819933 42.344338790378174 84.78283458878232 H 0.0 **** 0.06
18729 H 22.71895162398095 42.839780091940156 83.3741487168734 H 0.0 **** 0.06
18730 H 22.76653969559757 43.867357711346244 84.82708007787804 H 0.0 **** 0.06
18731 C 90.93879021617167 87.33976858327195 33.13866350662212 C 0.0 **** -0.24
18732 H 91.05406867518526 88.35034250569407 32.74626581177958 H 0.0 **** 0.06
18733 H 90.72905196594397 87.38720423844376 34.20699838305565 H 0.0 **** 0.06
18734 H 91.85847536820116 86.77870788125297 32.97287202074966 H 0.0 **** 0.06
18735 H 90.11332697553495 86.84357987087854 32.62791315300359 H 0.0 **** 0.06
18736 C 0.5834469134871734 84.1577054533686 52.988306394636325 C 0.0 **** -0.24
18737 H -0.3211879332275074 84.74353632892374 53.15017569692578 H 0.0 **** 0.06
18738 H 0.9758546977558984 84.36303943901598 51.992833769785214 H 0.0 **** 0.06
18739 H 0.35022188144607735 83.09706421273367 53.0759243209326 H 0.0 **** 0.06
18740 H 1.3288110953159809 84.42868104306677 53.73622696950618 H 0.0 **** 0.06
18741 C 72.39959319518033 18.662620192683434 103.11864537095371 C 0.0 **** -0.24
18742 H 71.36624706099462 18.98622383395717 102.99208638168581 H 0.0 **** 0.06
18743 H 72.8568597370529 19.219128022945867 103.9370035262153 H 0.0 **** 0.06
18744 H 72.95295179366661 18.84780746042216 102.19827228308921 H 0.0 **** 0.06
18745 H 72.4209226421874 17.597116991130747 103.34736722768152 H 0.0 **** 0.06
18746 C 72.23428009303737 103.86318753844286 96.69381067812182 C 0.0 **** -0.24
18747 H 72.15348128428641 104.94375851325456 96.5779762959466 H 0.0 **** 0.06
18748 H 72.56988288453792 103.42162224930686 95.7556201028123 H 0.0 **** 0.06
18749 H 71.26003478814303 103.45306691310805 96.9616985511906 H 0.0 **** 0.06
18750 H 72.95330370700214 103.63397911935301 97.48079688269647 H 0.0 **** 0.06
18751 C 12.472674079057242 61.967734810891656 16.751036869168793 C 0.0 **** -0.24
18752 H 13.531293493160106 61.717454692548415 16.690692416616795 H 0.0 **** 0.06
18753 H 12.0433348595068 61.51662806533392 17.6456581573986 H 0.0 **** 0.06
18754 H 11.95910152852636 61.587135279476456 15.86861639039314 H 0.0 **** 0.06
18755 H 12.35801377317533 63.050839859409905 16.799987875864144 H 0.0 **** 0.06
18756 C 55.75747696890031 45.68998507262921 24.695792842824538 C 0.0 **** -0.24
18757 H 56.754455146141886 46.01871747063615 24.99042866187388 H 0.0 **** 0.06
18758 H 55.780948178199075 45.340724520680226 23.66284563147287 H 0.0 **** 0.06
18759 H 55.060524440139204 46.52451375022571 24.781582308486517 H 0.0 **** 0.06
18760 H 55.435171366385724 44.878042278083484 25.34648526782777 H 0.0 **** 0.06
18761 C 66.35861294566445 58.17457104649287 91.49873601949201 C 0.0 **** -0.24
18762 H 67.09983227608825 58.09309281475811 90.70449370616664 H 0.0 **** 0.06
18763 H 66.85187072238074 58.08103575320547 92.46694244640778 H 0.0 **** 0.06
18764 H 65.61911442010688 57.38110388391078 91.38933988476302 H 0.0 **** 0.06
18765 H 65.86344330390412 59.14386944977633 91.43530599017798 H 0.0 **** 0.06
18766 C 79.83047740662263 24.66850906799681 38.81552900911596 C 0.0 **** -0.24
18767 H 79.30612040892993 24.520271916426466 39.76017934006154 H 0.0 **** 0.06
18768 H 79.10442145658786 24.85481585682848 38.02337226709125 H 0.0 **** 0.06
18769 H 80.40885536300542 23.77629825308057 38.57749861623674 H 0.0 **** 0.06
18770 H 80.5003241294147 25.524084904307742 38.903546505297584 H 0.0 **** 0.06
18771 C 53.776135314524936 1.8654231861830342 39.69584512795785 C 0.0 **** -0.24
18772 H 53.9071986304283 0.7847770755577983 39.737076575780065 H 0.0 **** 0.06
18773 H 53.27168562273931 2.134945586007584 38.76684459718747 H 0.0 **** 0.06
18774 H 54.751213624010234 2.3514262437737186 39.73409484925733 H 0.0 **** 0.06
18775 H 53.174349121677324 2.191094507613096 40.54372497204025 H 0.0 **** 0.06
18776 C 15.427858954318182 28.96761027213165 49.41949221453275 C 0.0 **** -0.24
18777 H 14.878645603353561 29.765940810908944 49.917110224286354 H 0.0 **** 0.06
18778 H 16.07471910245272 28.46739811647197 50.14100278736413 H 0.0 **** 0.06
18779 H 16.034857812766006 29.388740796703786 48.61827179649688 H 0.0 **** 0.06
18780 H 14.724417885166588 28.247161032094 49.00191315763327 H 0.0 **** 0.06
18781 C 1.636306479000318 7.924788086821678 47.884487878005956 C 0.0 **** -0.24
18782 H 1.587126308523069 7.029910556211746 47.26453288066365 H 0.0 **** 0.06
18783 H 0.9445122778352273 7.8242271294269585 48.72180267063259 H 0.0 **** 0.06
18784 H 1.3606983918901818 8.794986291946742 47.28791850290815 H 0.0 **** 0.06
18785 H 2.650093734218391 8.050435477708191 48.26355093596036 H 0.0 **** 0.06
18786 C 38.01716910453223 20.700546191184316 81.3108667805472 C 0.0 **** -0.24
18787 H 38.202054613783616 21.080555339374598 80.3053996404305 H 0.0 **** 0.06
18788 H 38.968449491131025 20.532541900474797 81.81623190837178 H 0.0 **** 0.06
18789 H 37.46716267322745 19.761244672925187 81.24852644678714 H 0.0 **** 0.06
18790 H 37.429947932373295 21.428108517838865 81.87111767163168 H 0.0 **** 0.06
18791 C 77.20028503044888 13.94375141489472 79.77620141637888 C 0.0 **** -0.24
18792 H 78.00334242521669 13.868809603975237 79.04285411613726 H 0.0 **** 0.06
18793 H 76.42725675306254 14.613889339281798 79.40050055345743 H 0.0 **** 0.06
18794 H 77.59831403570462 14.335408703331424 80.71248887382403 H 0.0 **** 0.06
18795 H 76.77299939686506 12.955504003493672 79.94739361056503 H 0.0 **** 0.06
18796 C 27.32955527206153 13.653882445930321 89.25324028229764 C 0.0 **** -0.24
18797 H 27.017464861630984 14.028195058050471 88.27852374531963 H 0.0 **** 0.06
18798 H 26.448579065044683 13.451229034344863 89.86306752797626 H 0.0 **** 0.06
18799 H 27.950971070198744 14.40060213027462 89.7476680635815 H 0.0 **** 0.06
18800 H 27.90084253442475 12.734534429990987 89.12273809971154 H 0.0 **** 0.06
18801 C 61.9107791653733 37.64855479331442 68.09584286126501 C 0.0 **** -0.24
18802 H 62.543159473773756 37.20614375869303 67.3264422461307 H 0.0 **** 0.06
18803 H 60.87268802788719 37.36279940580624 67.92263948175324 H 0.0 **** 0.06
18804 H 62.00009288908501 38.73443563470977 68.05929726913473 H 0.0 **** 0.06
18805 H 62.22739989759822 37.2910263998217 69.07594922988227 H 0.0 **** 0.06
18806 C 70.03696631715346 45.14554534943654 65.13287578516957 C 0.0 **** -0.24
18807 H 70.1137008851064 46.00402974954205 64.46517744320994 H 0.0 **** 0.06
18808 H 70.83044782905745 45.19524924798267 65.87960022743567 H 0.0 **** 0.06
18809 H 70.1381389180849 44.22602432009427 64.55573375498824 H 0.0 **** 0.06
18810 H 69.06801470975014 45.15691942882811 65.63074832258604 H 0.0 **** 0.06
18811 C 9.6692670185017 104.81904373672069 39.38661952916436 C 0.0 **** -0.24
18812 H 9.866576506965004 105.87729948088065 39.554066226491244 H 0.0 **** 0.06
18813 H 10.343610771330617 104.22155166965211 40.00083730926639 H 0.0 **** 0.06
18814 H 9.82777729852441 104.58191730562532 38.334455441228755 H 0.0 **** 0.06
18815 H 8.636296735071113 104.59558437041568 39.65681778667795 H 0.0 **** 0.06
18816 C 63.21477509307232 6.982461661241302 98.62001118258812 C 0.0 **** -0.24
18817 H 63.223170018557994 7.9775932298284715 99.06337935897146 H 0.0 **** 0.06
18818 H 63.199647072506934 6.232248031312849 99.41116186331811 H 0.0 **** 0.06
18819 H 64.10770329132117 6.849237883155254 98.01010929169549 H 0.0 **** 0.06
18820 H 62.32857998990312 6.87076750066845 97.99539421636743 H 0.0 **** 0.06
18821 C 83.42766966933125 86.84962178542281 6.786127680834568 C 0.0 **** -0.24
18822 H 84.17712540537634 87.30346295577067 7.436097750780789 H 0.0 **** 0.06
18823 H 83.57094922823346 85.76894113546973 6.7678783765611 H 0.0 **** 0.06
18824 H 83.53311181933171 87.24862189544751 5.777339513528659 H 0.0 **** 0.06
18825 H 82.4316921311008 87.07857521175094 7.166499635510775 H 0.0 **** 0.06
18826 C 50.12297118365137 3.5727986365940296 40.694007663636484 C 0.0 **** -0.24
18827 H 50.393396194323316 2.9034380526560426 41.51034485222206 H 0.0 **** 0.06
18828 H 49.42811523696207 4.329374422419278 41.059827352574786 H 0.0 **** 0.06
18829 H 49.64967673176653 2.999840563556404 39.89606395818018 H 0.0 **** 0.06
18830 H 51.01973034261289 4.058337777717725 40.30995242116916 H 0.0 **** 0.06
18831 C 29.611398056134703 12.255222218370726 98.86422966902558 C 0.0 **** -0.24
18832 H 30.461743138646284 12.441546764208667 98.20784248401898 H 0.0 **** 0.06
18833 H 28.732714075899537 12.020988098123427 98.26307697810817 H 0.0 **** 0.06
18834 H 29.41500749692875 13.142428275666557 99.46586813823227 H 0.0 **** 0.06
18835 H 29.837638157720733 11.413582111893598 99.52060620685309 H 0.0 **** 0.06
18836 C 43.70471549347144 20.098582495169268 5.869459668689515 C 0.0 **** -0.24
18837 H 44.64402520929991 19.5876548947941 5.65846454688139 H 0.0 **** 0.06
18838 H 43.1717245832794 20.276323585302663 4.935219057802954 H 0.0 **** 0.06
18839 H 43.91212210879468 21.0518340144246 6.357166354629555 H 0.0 **** 0.06
18840 H 43.09321957143885 19.479648758268695 6.525330411379173 H 0.0 **** 0.06
18841 C 45.94636716055674 78.1623272245132 35.264499123053184 C 0.0 **** -0.24
18842 H 46.756074421 78.79195763028441 35.6349764739893 H 0.0 **** 0.06
18843 H 45.12228522315903 78.17323781550851 35.97816826733859 H 0.0 **** 0.06
18844 H 46.30892010200254 77.14145159468049 35.14217969307242 H 0.0 **** 0.06
18845 H 45.60184635313844 78.54296428975842 34.30340156943713 H 0.0 **** 0.06
18846 C 31.519400993440172 40.46947743389123 75.95983740798835 C 0.0 **** -0.24
18847 H 32.368210931716185 41.10568457868135 76.20972107172514 H 0.0 **** 0.06
18848 H 31.817797277777828 39.422874742034224 76.02718137067978 H 0.0 **** 0.06
18849 H 31.189438330979705 40.68842651113761 74.94424661613539 H 0.0 **** 0.06
18850 H 30.704260393907987 40.66120834355053 76.65607994495946 H 0.0 **** 0.06
18851 C 105.18806710711004 49.70698786234931 33.833239655995136 C 0.0 **** -0.24
18852 H 104.36883597872139 49.10166509956548 34.21956770136843 H 0.0 **** 0.06
18853 H 105.41481567163294 49.401920668569744 32.81119667901738 H 0.0 **** 0.06
18854 H 106.06931111696008 49.565929876688756 34.45866856978374 H 0.0 **** 0.06
18855 H 104.89958137264153 50.75804260394659 33.844402841112625 H 0.0 **** 0.06
18856 C 32.69288035756915 101.49384740996658 47.0680315239041 C 0.0 **** -0.24
18857 H 32.07299100339773 100.70114462870254 46.64698606304762 H 0.0 **** 0.06
18858 H 32.07873478274033 102.3773593309599 47.24777494245188 H 0.0 **** 0.06
18859 H 33.4909830815285 101.74124117603355 46.36819292353408 H 0.0 **** 0.06
18860 H 33.12589181068677 101.15398217732655 48.0083316725366 H 0.0 **** 0.06
18861 C 80.88508352263102 60.545671918087606 27.220000136095763 C 0.0 **** -0.24
18862 H 81.66800436532907 61.26968150343106 27.45011287793892 H 0.0 **** 0.06
18863 H 81.08439767305919 59.615895307966525 27.752712091024577 H 0.0 **** 0.06
18864 H 80.87204719987614 60.35485722426262 26.14653446300568 H 0.0 **** 0.06
18865 H 79.91936809045961 60.944323694761124 27.529877768427127 H 0.0 **** 0.06
18866 C 32.23350919651615 89.10526406601915 25.368589040620407 C 0.0 **** -0.24
18867 H 31.14945214344997 89.21613326733947 25.368653207390025 H 0.0 **** 0.06
18868 H 32.52005004828328 88.32995153188158 26.080075219663343 H 0.0 **** 0.06
18869 H 32.69575580585676 90.04996362131254 25.65474725848773 H 0.0 **** 0.06
18870 H 32.569397388614355 88.82412049967553 24.369969407885208 H 0.0 **** 0.06
18871 C 22.49421094071275 34.13134401729479 22.481083713378155 C 0.0 **** -0.24
18872 H 22.055661565419975 33.49213920918183 21.714674961698393 H 0.0 **** 0.06
18873 H 23.225828162602372 33.560896636353505 23.054340015979278 H 0.0 **** 0.06
18874 H 21.70939669493699 34.48966861953761 23.14723893993812 H 0.0 **** 0.06
18875 H 22.985345170972835 34.9811358760802 22.007564286316693 H 0.0 **** 0.06
18876 C 82.60870258960168 79.8231442827433 49.7179148437248 C 0.0 **** -0.24
18877 H 81.88696052918314 79.06261356863092 49.418281427269875 H 0.0 **** 0.06
18878 H 83.49721003598683 79.33903919515208 50.12314253900299 H 0.0 **** 0.06
18879 H 82.16449366114401 80.46498596568651 50.479152270338155 H 0.0 **** 0.06
18880 H 82.88343708341677 80.42355923605032 48.851118147434484 H 0.0 **** 0.06
18881 C 28.008453334280944 104.97673119359884 13.645074411786439 C 0.0 **** -0.24
18882 H 26.94564616595258 104.78422577628488 13.496570806818458 H 0.0 **** 0.06
18883 H 28.29908101693573 104.65649895467561 14.64547760924042 H 0.0 **** 0.06
18884 H 28.20427461990846 106.04261817436057 13.532652752706735 H 0.0 **** 0.06
18885 H 28.58426443764759 104.42192739552435 12.904195181575194 H 0.0 **** 0.06
18886 C 75.05530067376758 91.93188529204389 99.2493652512832 C 0.0 **** -0.24
18887 H 74.11557164061614 91.4129415385766 99.43803010485277 H 0.0 **** 0.06
18888 H 74.84758926529463 92.958365513145 98.94477683756766 H 0.0 **** 0.06
18889 H 75.59932623421966 91.4207238454091 98.45500080105435 H 0.0 **** 0.06
18890 H 75.65688595300314 91.93678534166042 100.15764648162322 H 0.0 **** 0.06
18891 C 20.270467718797676 29.33347376281813 51.66710451098527 C 0.0 **** -0.24
18892 H 19.850073441320376 28.486419733621375 51.12503456260606 H 0.0 **** 0.06
18893 H 19.504265410413666 30.0990220955444 51.792733000841 H 0.0 **** 0.06
18894 H 21.10730549447962 29.745660890562917 51.1045141166756 H 0.0 **** 0.06
18895 H 20.61707538399834 29.002833744753957 52.64587362678367 H 0.0 **** 0.06
18896 C 98.62295883871394 82.13914297574337 80.32030981707976 C 0.0 **** -0.24
18897 H 99.61582549890636 81.84600769275559 79.97772077286857 H 0.0 **** 0.06
18898 H 98.67392597273096 83.12823884015393 80.77580563760921 H 0.0 **** 0.06
18899 H 98.2650694661835 81.41890745659009 81.05517350751074 H 0.0 **** 0.06
18900 H 97.93834140716832 82.1645204381083 79.47238548428538 H 0.0 **** 0.06
18901 C 47.119767081713405 100.30796293378961 76.11561449620012 C 0.0 **** -0.24
18902 H 47.46335433498416 99.28403994928728 75.96873622769684 H 0.0 **** 0.06
18903 H 47.586135129255524 100.72230945433971 77.00960919781087 H 0.0 **** 0.06
18904 H 46.03585104628678 100.31367857863489 76.23314787564775 H 0.0 **** 0.06
18905 H 47.39451669491257 100.9112372488887 75.24953856241254 H 0.0 **** 0.06
18906 C 87.41836828339098 55.83996044821839 6.359896106001656 C 0.0 **** -0.24
18907 H 86.5923790177759 55.13158029897255 6.434783198561604 H 0.0 **** 0.06
18908 H 87.88958015219197 55.745389778777536 5.381473150758097 H 0.0 **** 0.06
18909 H 88.15053631771048 55.62771543945817 7.138422080160794 H 0.0 **** 0.06
18910 H 87.03774484583602 56.85413193624444 6.483681114444607 H 0.0 **** 0.06
18911 C 44.16784539840114 75.07352803555433 58.420621897584574 C 0.0 **** -0.24
18912 H 45.11402949782984 75.33033147658682 58.8992662871957 H 0.0 **** 0.06
18913 H 44.3566688815764 74.41441567205601 57.57332544014489 H 0.0 **** 0.06
18914 H 43.67891023542457 75.98310788748537 58.072451559648094 H 0.0 **** 0.06
18915 H 43.52400486209532 74.56628355898458 59.13918164772175 H 0.0 **** 0.06
18916 C 96.56723290180126 31.001553426976244 50.117938694135205 C 0.0 **** -0.24
18917 H 96.10993459873839 30.01951746872531 49.993687395431365 H 0.0 **** 0.06
18918 H 97.57924284632747 30.98437140502847 49.71323588456599 H 0.0 **** 0.06
18919 H 96.60374548861786 31.25408145013725 51.17765806079679 H 0.0 **** 0.06
18920 H 95.97548814652157 31.747012848550924 49.586709834395855 H 0.0 **** 0.06
18921 C 38.90738287060151 97.79297904423794 37.37915079221915 C 0.0 **** -0.24
18922 H 38.69549958543081 96.90709062591662 37.97798541038574 H 0.0 **** 0.06
18923 H 38.30109751780208 98.62528517201854 37.73592279903545 H 0.0 **** 0.06
18924 H 38.66975836497306 97.58963125569136 36.335473192889225 H 0.0 **** 0.06
18925 H 39.963638590991536 98.04733873790427 37.46869809848391 H 0.0 **** 0.06
18926 C 89.30555404132394 106.45101564742515 53.75614983644823 C 0.0 **** -0.24
18927 H 88.95341480045724 106.19379341287913 54.75489673332521 H 0.0 **** 0.06
18928 H 88.89793137803889 105.74364713924388 53.03401185724687 H 0.0 **** 0.06
18929 H 90.39453832394466 106.40839371216981 53.73245769476233 H 0.0 **** 0.06
18930 H 88.97590987024083 107.45913422255313 53.50319449362337 H 0.0 **** 0.06
18931 C 28.48903853116255 56.143817318947 23.197575949472622 C 0.0 **** -0.24
18932 H 27.514376924801322 55.75284414920607 23.491593797121993 H 0.0 **** 0.06
18933 H 28.940865689781837 56.66374183977366 24.04222167942308 H 0.0 **** 0.06
18934 H 28.36526087201563 56.838406290168514 22.36658258628944 H 0.0 **** 0.06
18935 H 29.13324430971717 55.32073500185566 22.88991529838512 H 0.0 **** 0.06
18936 C 105.73710374115547 43.345287633286375 94.98788124618684 C 0.0 **** -0.24
18937 H 106.79546370697443 43.45867257735193 95.22500736349494 H 0.0 **** 0.06
18938 H 105.61218964640028 42.53578381097492 94.26827874017961 H 0.0 **** 0.06
18939 H 105.36034793920123 44.27459592723437 94.5601489856588 H 0.0 **** 0.06
18940 H 105.1836909113427 43.11304902565769 95.89692530740875 H 0.0 **** 0.06
18941 C 6.0484615662078625 97.6643570979258 73.39363239928565 C 0.0 **** -0.24
18942 H 5.319373309566771 98.02669881983243 72.66844447324115 H 0.0 **** 0.06
18943 H 6.730886280307317 98.47253662603428 73.65687386554879 H 0.0 **** 0.06
18944 H 6.613194751396037 96.83964164269756 72.95887205793446 H 0.0 **** 0.06
18945 H 5.530098566140168 97.31932887214849 74.28712830733565 H 0.0 **** 0.06
18946 C 101.0522243398631 4.184082496637899 40.334952134224416 C 0.0 **** -0.24
18947 H 101.7393669956999 3.7687477698928546 41.07163504349698 H 0.0 **** 0.06
18948 H 101.58712850727946 4.369293231482857 39.402804464094935 H 0.0 **** 0.06
18949 H 100.63983893624521 5.1206022397933 40.7101224245686 H 0.0 **** 0.06
18950 H 100.24172399994578 3.4771910057590674 40.15547132908908 H 0.0 **** 0.06
18951 C 67.95996925286448 18.9645387405497 29.841932300724665 C 0.0 **** -0.24
18952 H 68.14705776196432 19.163402500571465 30.89678478487167 H 0.0 **** 0.06
18953 H 66.91335696972844 18.695225318019027 29.703167484764663 H 0.0 **** 0.06
18954 H 68.59397908897199 18.14219040187959 29.51019979905081 H 0.0 **** 0.06
18955 H 68.18712736607894 19.857028334714357 29.25802625656442 H 0.0 **** 0.06
18956 C 95.80228607334774 98.13865928983351 69.62574320667669 C 0.0 **** -0.24
18957 H 95.8097158842995 98.30312437254527 68.54786576486732 H 0.0 **** 0.06
18958 H 95.64240377999428 99.08831234570147 70.1366408947005 H 0.0 **** 0.06
18959 H 96.75809503685915 97.7162792096663 69.93456672531056 H 0.0 **** 0.06
18960 H 94.99993120145442 97.44769128207342 69.88180085247873 H 0.0 **** 0.06
18961 C 32.179342042600695 64.51189643611558 97.74574396588372 C 0.0 **** -0.24
18962 H 31.949442243191697 65.40863884188768 98.32244138677217 H 0.0 **** 0.06
18963 H 31.949487224293847 63.628119784071885 98.34190615387101 H 0.0 **** 0.06
18964 H 33.23662862474605 64.51065658236101 97.48340985154422 H 0.0 **** 0.06
18965 H 31.57873926326279 64.50229502592047 96.83545781138028 H 0.0 **** 0.06
18966 C 16.921774029038087 55.6748544394429 18.842311334321636 C 0.0 **** -0.24
18967 H 17.49397971803057 56.08868458363363 19.67227876845503 H 0.0 **** 0.06
18968 H 16.77132094010328 54.60656981168004 19.002927651570985 H 0.0 **** 0.06
18969 H 17.467392541884944 55.82941670125506 17.91164134123035 H 0.0 **** 0.06
18970 H 15.953533381069327 56.17333368098812 18.78389678446335 H 0.0 **** 0.06
18971 C 14.280922920424945 25.789477441223266 37.492121771590405 C 0.0 **** -0.24
18972 H 13.648327072902052 26.289041594367447 38.22658477771796 H 0.0 **** 0.06
18973 H 15.281703129454154 25.657865545333703 37.90499590093708 H 0.0 **** 0.06
18974 H 14.336424714620357 26.395426211512785 36.58834674534776 H 0.0 **** 0.06
18975 H 13.85621472794103 24.815305786392564 37.252006806149126 H 0.0 **** 0.06
18976 C 93.34632347777809 14.629500956517404 54.47462401343024 C 0.0 **** -0.24
18977 H 92.37830606495686 14.626709297127661 54.97449814642419 H 0.0 **** 0.06
18978 H 93.26400792479352 15.165106891716306 53.52790799322693 H 0.0 **** 0.06
18979 H 93.66141984076685 13.602620759691774 54.28558403026384 H 0.0 **** 0.06
18980 H 94.08142620492355 15.124106072744269 55.10920533087494 H 0.0 **** 0.06
18981 C 106.24952278740237 61.746891874700566 43.889959717334534 C 0.0 **** -0.24
18982 H 106.73240173778062 62.394774217798016 43.15806005276684 H 0.0 **** 0.06
18983 H 105.33228488013768 62.21767636487451 44.24267243161279 H 0.0 **** 0.06
18984 H 106.92230642781246 61.5847600438222 44.73130036708551 H 0.0 **** 0.06
18985 H 106.01169674588563 60.78897951365295 43.425870872614496 H 0.0 **** 0.06
18986 C 35.78608160629966 56.24544487174891 78.82051623972154 C 0.0 **** -0.24
18987 H 34.83561273216387 56.39397194244447 79.3316495605448 H 0.0 **** 0.06
18988 H 35.874429739937966 55.203459666650815 78.51412251380452 H 0.0 **** 0.06
18989 H 36.60428933628293 56.49651629069308 79.49562361503177 H 0.0 **** 0.06
18990 H 35.83020357835093 56.88854676907988 77.94187132693378 H 0.0 **** 0.06
18991 C 11.600597745208574 12.419926913416248 47.32562906715705 C 0.0 **** -0.24
18992 H 12.40929004980373 13.043301637429579 47.70624486697005 H 0.0 **** 0.06
18993 H 11.278205910911396 12.795689137571557 46.354807280458516 H 0.0 **** 0.06
18994 H 10.76191965729717 12.446193761970662 48.0224029846693 H 0.0 **** 0.06
18995 H 11.953237255288968 11.393491339409323 47.21999223269495 H 0.0 **** 0.06
18996 C 85.00157024959208 33.305763668051156 3.7639988583122346 C 0.0 **** -0.24
18997 H 84.66797695197363 34.33636798985057 3.6428256293761763 H 0.0 **** 0.06
18998 H 85.08954695737283 32.834310001829834 2.784497297328201 H 0.0 **** 0.06
18999 H 84.27795510778866 32.75790627826393 4.367475541612379 H 0.0 **** 0.06
19000 H 85.9720629353092 33.293932582629026 4.2615445810398285 H 0.0 **** 0.06
19001 C 103.79353128016376 75.87028462502576 30.26002024756201 C 0.0 **** -0.24
19002 H 103.07021944008443 75.50077833468546 30.987737806265784 H 0.0 **** 0.06
19003 H 103.96447707391542 75.1088362046491 29.49899820479635 H 0.0 **** 0.06
19004 H 104.73255538995554 76.09746659598154 30.764995289761885 H 0.0 **** 0.06
19005 H 103.405365473209 76.77418525954107 29.790275988670203 H 0.0 **** 0.06
19006 C 17.697784108739114 70.70699084012622 70.5297731198581 C 0.0 **** -0.24
19007 H 18.278567561956493 69.82745331790417 70.25313435986564 H 0.0 **** 0.06
19008 H 16.912153544807666 70.87050926721011 69.7911615083369 H 0.0 **** 0.06
19009 H 18.351883750619606 71.57814376995864 70.5643409014333 H 0.0 **** 0.06
19010 H 17.24780599308494 70.55117369694531 71.51053733523221 H 0.0 **** 0.06
19011 C 86.16642426210908 8.68966124340696 85.21237908447478 C 0.0 **** -0.24
19012 H 85.63358703998716 7.85025892567208 84.7654261125805 H 0.0 **** 0.06
19013 H 86.95365141872404 8.31321267478637 85.86637651161031 H 0.0 **** 0.06
19014 H 85.46910908843356 9.294518383312905 85.79380766208796 H 0.0 **** 0.06
19015 H 86.60798782951586 9.299862900420251 84.4257818769289 H 0.0 **** 0.06
19016 C 29.569260182845767 60.221300688100186 90.64976746355507 C 0.0 **** -0.24
19017 H 28.591287388029087 59.9836154878021 90.23124187916267 H 0.0 **** 0.06
19018 H 29.446533918364963 60.890161712571725 91.50203029438607 H 0.0 **** 0.06
19019 H 30.18139038794459 60.70726972172304 89.88992838634131 H 0.0 **** 0.06
19020 H 30.057735836097095 59.302165769375954 90.97569278574802 H 0.0 **** 0.06
19021 C 28.37802557028687 51.93615624787071 97.2375382699678 C 0.0 **** -0.24
19022 H 28.66755483823635 52.54854827850335 96.38337814056538 H 0.0 **** 0.06
19023 H 27.293204743672938 51.94902423109494 97.34202696793962 H 0.0 **** 0.06
19024 H 28.83553749796006 52.335993462996896 98.14198158127269 H 0.0 **** 0.06
19025 H 28.716625889571894 50.91201827288927 97.08121510460191 H 0.0 **** 0.06
19026 C 27.053062211754963 50.09865898372552 80.38745212354146 C 0.0 **** -0.24
19027 H 26.63706736400681 49.851948957205515 81.36456684704902 H 0.0 **** 0.06
19028 H 28.082594413839615 50.43517038802579 80.5065831150001 H 0.0 **** 0.06
19029 H 26.461483842056438 50.892335359098446 79.93103503839998 H 0.0 **** 0.06
19030 H 27.029501040637285 49.21516846086197 79.74947635952574 H 0.0 **** 0.06
19031 C 6.119280981026975 40.33437752246036 100.67727184353265 C 0.0 **** -0.24
19032 H 6.666334843679039 40.22990577136804 101.61368381663601 H 0.0 **** 0.06
19033 H 6.55397907511437 39.671910688907104 99.92778599607902 H 0.0 **** 0.06
19034 H 6.1848725058798095 41.366224732282916 100.3323997113012 H 0.0 **** 0.06
19035 H 5.07408077900331 40.06892368621109 100.83554849768677 H 0.0 **** 0.06
19036 C 86.35420824963467 35.64329661666946 95.09260004321499 C 0.0 **** -0.24
19037 H 85.78667737849185 34.96152946700715 94.45970278340644 H 0.0 **** 0.06
19038 H 86.69057386110967 35.11528007969349 95.9857587591269 H 0.0 **** 0.06
19039 H 85.72115879248811 36.48245770951061 95.38273070193941 H 0.0 **** 0.06
19040 H 87.21947712801915 36.014624456653934 94.54283359866344 H 0.0 **** 0.06
19041 C 60.228783660721334 97.023087379385 41.22376337717152 C 0.0 **** -0.24
19042 H 60.808670910475456 96.10095273673923 41.2373326453171 H 0.0 **** 0.06
19043 H 59.31495504790413 96.868290432898 40.64957968879511 H 0.0 **** 0.06
19044 H 60.81802574893976 97.81566760147066 40.76172647871456 H 0.0 **** 0.06
19045 H 59.973450461182196 97.30721099185422 42.24419044238742 H 0.0 **** 0.06
19046 C 87.33543786644509 35.43509866884218 90.89289363021153 C 0.0 **** -0.24
19047 H 87.54424975493583 34.407801234799486 90.59566098214839 H 0.0 **** 0.06
19048 H 86.55044614727905 35.44203605073452 91.64868497192481 H 0.0 **** 0.06
19049 H 87.0077445502713 36.005121212632616 90.02266367972074 H 0.0 **** 0.06
19050 H 88.23896441854453 35.88590975116372 91.30218667846799 H 0.0 **** 0.06
19051 C 107.09782492314889 57.55117783721562 43.91298714266967 C 0.0 **** -0.24
19052 H 106.94160103156199 57.203335328371 42.89177785968229 H 0.0 **** 0.06
19053 H 107.52493650619357 58.5539752126827 43.892448335611085 H 0.0 **** 0.06
19054 H 107.781142527752 56.87496249408474 44.426510811788596 H 0.0 **** 0.06
19055 H 106.14345506811398 57.57374184792286 44.43940215784429 H 0.0 **** 0.06
19056 C 98.57398170527375 16.20104834394219 68.33790536392323 C 0.0 **** -0.24
19057 H 98.07231357128859 15.809820008263163 67.45330594013501 H 0.0 **** 0.06
19058 H 98.71280715501229 17.277135921122298 68.23080374918044 H 0.0 **** 0.06
19059 H 99.54565195586633 15.718136593059395 68.44843110518056 H 0.0 **** 0.06
19060 H 97.96561642456095 15.99794325102738 69.219748748775 H 0.0 **** 0.06
19061 C 64.56776711567394 66.0879323193638 95.01257188884924 C 0.0 **** -0.24
19062 H 65.19541037437219 65.91958145757746 94.13709164124694 H 0.0 **** 0.06
19063 H 65.07704995197913 66.76368765719752 95.69954016745264 H 0.0 **** 0.06
19064 H 64.37941215967446 65.13765010696284 95.5108918426204 H 0.0 **** 0.06
19065 H 63.62174754501176 66.53004854367057 94.70105801460821 H 0.0 **** 0.06
19066 C 104.5881583356637 19.323404954375775 9.272096868588704 C 0.0 **** -0.24
19067 H 105.07786710193778 18.361492194473186 9.419680123612835 H 0.0 **** 0.06
19068 H 104.3378633060758 19.75651431048314 10.240715166583527 H 0.0 **** 0.06
19069 H 103.67693828382045 19.18187605891012 8.69039649474935 H 0.0 **** 0.06
19070 H 105.25955717404031 19.994274171646737 8.736856955511215 H 0.0 **** 0.06
19071 C 36.976064209088406 25.219643604636104 2.7756098174250186 C 0.0 **** -0.24
19072 H 37.526905820741575 24.497547781874317 2.1742839719686984 H 0.0 **** 0.06
19073 H 36.92611139345394 26.171324012763293 2.2461243646745137 H 0.0 **** 0.06
19074 H 37.4846666014127 25.36175123462302 3.7301027819550976 H 0.0 **** 0.06
19075 H 35.96617499677211 24.84881456754125 2.954185755252338 H 0.0 **** 0.06
19076 C 1.8250826661792985 33.587443514831364 73.3419726339344 C 0.0 **** -0.24
19077 H 1.6950282342283458 32.54475133565663 73.6315664289462 H 0.0 **** 0.06
19078 H 0.9076157093903703 33.95402043469309 72.88232883728915 H 0.0 **** 0.06
19079 H 2.6463767228862025 33.667255311388175 72.62919083287426 H 0.0 **** 0.06
19080 H 2.0534063165977727 34.183579226965435 74.22606045623172 H 0.0 **** 0.06
19081 C 36.18197992378089 84.36630513919192 10.562454546180618 C 0.0 **** -0.24
19082 H 36.85117167835773 85.18523220663172 10.299379383787453 H 0.0 **** 0.06
19083 H 36.0187164698965 84.36211623982638 11.640554376920704 H 0.0 **** 0.06
19084 H 36.62796966347355 83.4196071168709 10.257668209621158 H 0.0 **** 0.06
19085 H 35.22742511199027 84.49861073655018 10.05082757740405 H 0.0 **** 0.06
19086 C 105.14576160885225 84.21437356519753 88.20440005904547 C 0.0 **** -0.24
19087 H 104.67373846297015 85.18492611274974 88.04868348326985 H 0.0 **** 0.06
19088 H 105.47172661715716 84.13208720972352 89.24118714875462 H 0.0 **** 0.06
19089 H 106.00761978186239 84.12019216440525 87.54400923079251 H 0.0 **** 0.06
19090 H 104.43019238813326 83.42271054026547 87.98343393212505 H 0.0 **** 0.06
19091 C 27.631696639546988 95.97510304815462 10.923779608313865 C 0.0 **** -0.24
19092 H 26.83231334720756 96.26634667801821 10.242390432862564 H 0.0 **** 0.06
19093 H 27.784845446148836 96.7645677861008 11.660959146684846 H 0.0 **** 0.06
19094 H 28.551013176501385 95.8190606621335 10.360990571994023 H 0.0 **** 0.06
19095 H 27.35605048538406 95.05196213224465 11.433036642805291 H 0.0 **** 0.06
19096 C 21.55510221863591 22.05878669989727 93.61284678208166 C 0.0 **** -0.24
19097 H 20.801485603240508 22.715358906378302 94.04705481637241 H 0.0 **** 0.06
19098 H 22.132207787773382 21.59009637276028 94.41079872836498 H 0.0 **** 0.06
19099 H 22.22083794141986 22.6406630692322 92.97643851257493 H 0.0 **** 0.06
19100 H 21.064535833968307 21.287760940767374 93.01835739694673 H 0.0 **** 0.06
19101 C 53.49072430431528 95.56775035936178 20.982653031943595 C 0.0 **** -0.24
19102 H 53.44944301618392 96.50447315310123 21.53729066964696 H 0.0 **** 0.06
19103 H 52.61462724994118 95.48821853800254 20.338603053923944 H 0.0 **** 0.06
19104 H 53.50556230526206 94.73153341967452 21.681838831069467 H 0.0 **** 0.06
19105 H 54.39326699491835 95.54738413414898 20.37160260146452 H 0.0 **** 0.06
19106 C 49.935171711179066 52.944034345717284 62.01027568780722 C 0.0 **** -0.24
19107 H 50.74967719376797 53.66249426102593 62.11371638365591 H 0.0 **** 0.06
19108 H 50.198823023369116 52.02028264988968 62.52655134640173 H 0.0 **** 0.06
19109 H 49.76783443985163 52.73649306566466 60.953438634939715 H 0.0 **** 0.06
19110 H 49.027952402930765 53.35931604400116 62.44760494978982 H 0.0 **** 0.06
19111 C 41.44188949579683 72.52663565665353 26.84032030418109 C 0.0 **** -0.24
19112 H 41.9422479295896 71.56679955016673 26.966335251841414 H 0.0 **** 0.06
19113 H 41.99978819877026 73.29901302103609 27.37125064354541 H 0.0 **** 0.06
19114 H 40.43220954777075 72.46486372783498 27.24541326251243 H 0.0 **** 0.06
19115 H 41.394254223139455 72.77539091969048 25.780253609401584 H 0.0 **** 0.06
19116 C 44.912225804411705 54.413280084474714 56.08876937477095 C 0.0 **** -0.24
19117 H 44.27615525012945 54.75545575679125 55.27188884117072 H 0.0 **** 0.06
19118 H 45.94914265801014 54.38264627952519 55.75228048360549 H 0.0 **** 0.06
19119 H 44.60022382429729 53.41529019917935 56.39673311234736 H 0.0 **** 0.06
19120 H 44.82302682458348 55.09869425141452 56.93138117892653 H 0.0 **** 0.06
19121 C 36.02981658233392 3.7344456669989228 50.1857100616761 C 0.0 **** -0.24
19122 H 35.75696660540382 2.803260907387454 49.68885539953441 H 0.0 **** 0.06
19123 H 36.13776715921102 3.557644877755962 51.256214567730716 H 0.0 **** 0.06
19124 H 35.25077502856395 4.478457712484101 50.017008910018966 H 0.0 **** 0.06
19125 H 36.97375753615674 4.098419170368459 49.78076136942043 H 0.0 **** 0.06
19126 C 94.84765631358408 36.6984025873364 16.693495576068134 C 0.0 **** -0.24
19127 H 94.86669050281886 37.743731792608855 16.386392618415705 H 0.0 **** 0.06
19128 H 93.81619205448902 36.3459658466123 16.717981534243233 H 0.0 **** 0.06
19129 H 95.28879500091598 36.60258699185974 17.68616963503764 H 0.0 **** 0.06
19130 H 95.41894769611254 36.10132571826503 15.983438516575962 H 0.0 **** 0.06
19131 C 28.800904661539192 10.134710074784934 70.41127117854009 C 0.0 **** -0.24
19132 H 28.036390091204936 10.523099071205896 71.08550796953946 H 0.0 **** 0.06
19133 H 29.490156971959607 9.501705916651801 70.97087883882543 H 0.0 **** 0.06
19134 H 29.348746331524637 10.964830852248907 69.96760056497305 H 0.0 **** 0.06
19135 H 28.326334992254402 9.549102398527717 69.6242642157155 H 0.0 **** 0.06
19136 C 52.11683842120893 9.443429167681217 58.43303258979797 C 0.0 **** -0.24
19137 H 51.31406373303622 8.843060277337173 58.85916124160978 H 0.0 **** 0.06
19138 H 51.841981455520425 9.753223342359945 57.42383587347307 H 0.0 **** 0.06
19139 H 53.03209929715732 8.851643850661418 58.39486934709571 H 0.0 **** 0.06
19140 H 52.27996997745705 10.325015041524665 59.05230887152701 H 0.0 **** 0.06
19141 C 1.0303174033930986 16.81356624702252 99.90329067409891 C 0.0 **** -0.24
19142 H 0.25398979647052045 16.5747529329046 99.17616319551493 H 0.0 **** 0.06
19143 H 0.7018496367039404 17.647937328287654 100.52347335641201 H 0.0 **** 0.06
19144 H 1.9459177878570557 17.08809477972521 99.37949708351289 H 0.0 **** 0.06
19145 H 1.21829995184288 15.943402940657649 100.53330507915553 H 0.0 **** 0.06
19146 C 80.94108477761631 102.3858835468713 94.37571707478736 C 0.0 **** -0.24
19147 H 81.54214742437648 101.64769209877234 93.84448755570304 H 0.0 **** 0.06
19148 H 80.66662191547425 101.99335714024973 95.35551293349204 H 0.0 **** 0.06
19149 H 80.03752545951528 102.59784882327585 93.8031858220615 H 0.0 **** 0.06
19150 H 81.51699462913956 103.30269604817508 94.49861683754779 H 0.0 **** 0.06
19151 C 58.636781122638894 25.93141461615315 31.526258433161274 C 0.0 **** -0.24
19152 H 59.0889253754328 25.180938059498146 32.1751815793765 H 0.0 **** 0.06
19153 H 57.95515294993629 26.551937151143733 32.10800625198192 H 0.0 **** 0.06
19154 H 58.085096302077204 25.43556623264712 30.727205885185043 H 0.0 **** 0.06
19155 H 59.418847542642894 26.556526837867438 31.093792720198195 H 0.0 **** 0.06
19156 C 59.819451012220526 0.8489398277884135 80.8694748125011 C 0.0 **** -0.24
19157 H 59.348462105652914 1.2732346337662506 81.75691671762644 H 0.0 **** 0.06
19158 H 59.1032291845556 0.8378750077611841 80.04878333403371 H 0.0 **** 0.06
19159 H 60.14376274266107 -0.16977059951268814 81.08381965256532 H 0.0 **** 0.06
19160 H 60.68293452490042 1.4544068895542779 80.59246108386645 H 0.0 **** 0.06
19161 C 57.16622019864697 35.97702756145458 4.702190610408877 C 0.0 **** -0.24
19162 H 56.4822961827674 36.76867084989482 5.009212726525959 H 0.0 **** 0.06
19163 H 57.808714677863186 35.707767983130594 5.5402173446289 H 0.0 **** 0.06
19164 H 57.77842089144936 36.32764024935378 3.8720691114331203 H 0.0 **** 0.06
19165 H 56.59258225021391 35.104354189395906 4.388086405819422 H 0.0 **** 0.06
19166 C 13.29750299708489 29.024075624495055 8.4124310344734 C 0.0 **** -0.24
19167 H 13.743099683079436 28.740605396593878 9.366126974744077 H 0.0 **** 0.06
19168 H 13.330175872661599 30.10819341617733 8.304186847955407 H 0.0 **** 0.06
19169 H 12.261264131139512 28.68633907817278 8.382888283544958 H 0.0 **** 0.06
19170 H 13.855022424024824 28.55942588654642 7.599648540880935 H 0.0 **** 0.06
19171 C 81.03574572202442 85.36034617669699 72.04951891811976 C 0.0 **** -0.24
19172 H 80.79544413435687 84.74429606695475 72.91643249438732 H 0.0 **** 0.06
19173 H 82.06012210530557 85.72274467149296 72.13536797858814 H 0.0 **** 0.06
19174 H 80.35169357365115 86.20758632572458 72.00657160452323 H 0.0 **** 0.06
19175 H 80.93425714347583 84.76516548380081 71.14258745945915 H 0.0 **** 0.06
19176 C 2.4844423168823777 30.185669807058623 95.43081872838142 C 0.0 **** -0.24
19177 H 2.1407330984901103 30.071908942788582 94.40269123278658 H 0.0 **** 0.06
19178 H 2.2647114981525673 31.196076258510537 95.77762983099666 H 0.0 **** 0.06
19179 H 3.560012688157073 30.012518659621747 95.4748391170205 H 0.0 **** 0.06
19180 H 1.9738506218096568 29.462695911086556 96.06628118418118 H 0.0 **** 0.06
19181 C 7.305734707330732 67.38900313638638 33.77450057282985 C 0.0 **** -0.24
19182 H 8.20609316441001 67.61302527448011 33.20229829712706 H 0.0 **** 0.06
19183 H 6.444551010551454 67.37781674048406 33.10657976764074 H 0.0 **** 0.06
19184 H 7.163438923810666 68.15258964417475 34.53940009259293 H 0.0 **** 0.06
19185 H 7.4103236675707365 66.4142366051713 34.25004660336376 H 0.0 **** 0.06
19186 C 22.58147466751717 14.141898534852288 55.84458847141369 C 0.0 **** -0.24
19187 H 22.413319824099972 14.883003859497379 56.62530064888759 H 0.0 **** 0.06
19188 H 23.326807202805526 13.42136444670561 56.18278189422878 H 0.0 **** 0.06
19189 H 22.939547156092374 14.639523764492921 54.942913936966136 H 0.0 **** 0.06
19190 H 21.64700268351521 13.624839919005893 55.62767331552959 H 0.0 **** 0.06
19191 C 25.006425818349545 21.050797558314542 49.58289875714077 C 0.0 **** -0.24
19192 H 24.432869237061713 21.216522217795216 50.49398537172313 H 0.0 **** 0.06
19193 H 24.406549613714258 21.33973717125241 48.718704773361 H 0.0 **** 0.06
19194 H 25.270117592262036 19.996459905568855 49.50590899834653 H 0.0 **** 0.06
19195 H 25.915227125197408 21.651214163715963 49.611107817089305 H 0.0 **** 0.06
19196 C 15.424467749243206 52.09533074117792 81.94768386513601 C 0.0 **** -0.24
19197 H 15.217275733038118 51.052385101790605 82.18443585586238 H 0.0 **** 0.06
19198 H 16.476647471790866 52.207043292867525 81.68472973920294 H 0.0 **** 0.06
19199 H 15.19884999640611 52.71711447076723 82.81401309114071 H 0.0 **** 0.06
19200 H 14.804267128169986 52.40668425768354 81.10625891129467 H 0.0 **** 0.06
19201 C 106.76286157386079 74.93574094145704 8.775227917877316 C 0.0 **** -0.24
19202 H 106.621507834848 75.96159115518545 9.1146217020313 H 0.0 **** 0.06
19203 H 107.0872323171649 74.31691303687275 9.612905322341476 H 0.0 **** 0.06
19204 H 107.52010333079741 74.91340479197129 7.99145771546867 H 0.0 **** 0.06
19205 H 105.82198457026723 74.55059413497575 8.382563820143346 H 0.0 **** 0.06
19206 C 5.013623703542166 72.64321760005265 105.8013008325999 C 0.0 **** -0.24
19207 H 5.602041847080272 72.00662436376555 106.46206996561597 H 0.0 **** 0.06
19208 H 5.395737524415438 73.6629887663122 105.84408504157312 H 0.0 **** 0.06
19209 H 3.971513199497693 72.63166105303588 106.11907245656175 H 0.0 **** 0.06
19210 H 5.0850018855531545 72.27001713997689 104.7792928509711 H 0.0 **** 0.06
19211 C 11.26256591097723 97.50188641938865 28.431726127683703 C 0.0 **** -0.24
19212 H 10.621220525651609 96.62224879577752 28.489053848389062 H 0.0 **** 0.06
19213 H 12.110488698862895 97.37770573062215 29.10642819476041 H 0.0 **** 0.06
19214 H 10.693187221875093 98.38518302042854 28.721033456164776 H 0.0 **** 0.06
19215 H 11.625300938011122 97.62144290625668 27.41013603425006 H 0.0 **** 0.06
19216 C 20.4599568991608 82.58518013432314 27.796269925538695 C 0.0 **** -0.24
19217 H 21.105551319296353 82.23753348138717 28.603456649432815 H 0.0 **** 0.06
19218 H 20.962836851157476 83.38174320538792 27.24712534122324 H 0.0 **** 0.06
19219 H 19.528196937930517 82.96396950230411 28.21511315383765 H 0.0 **** 0.06
19220 H 20.244682522132052 81.75669680998482 27.121691526479992 H 0.0 **** 0.06
19221 C 43.29385727626351 36.1221856516606 82.8028190060152 C 0.0 **** -0.24
19222 H 43.687966314436125 37.12269399504552 82.98166485681291 H 0.0 **** 0.06
19223 H 43.173052316167286 35.96582784100292 81.73117770679578 H 0.0 **** 0.06
19224 H 42.32691252069168 36.019590032770594 83.29716783849658 H 0.0 **** 0.06
19225 H 43.98616939203856 35.38166237748959 83.20304632957942 H 0.0 **** 0.06
19226 C 24.633783785764805 95.67932645757895 52.73105761712523 C 0.0 **** -0.24
19227 H 25.516798946796854 95.91086951415812 53.326143926682605 H 0.0 **** 0.06
19228 H 23.780274764555827 96.23837330900477 53.11587539429993 H 0.0 **** 0.06
19229 H 24.42474949343631 94.61129252521829 52.789168509863764 H 0.0 **** 0.06
19230 H 24.812228105830357 95.95843695739394 51.692822749096386 H 0.0 **** 0.06
19231 C 94.20496671964902 74.83233319965767 8.848665676925663 C 0.0 **** -0.24
19232 H 93.24599796619825 74.70139397727516 8.346718881439841 H 0.0 **** 0.06
19233 H 94.28812523396064 75.85812887639574 9.209376991953832 H 0.0 **** 0.06
19234 H 95.01363013995787 74.62851169551509 8.145809334482891 H 0.0 **** 0.06
19235 H 94.27184292673668 74.1440105192434 9.690194102374676 H 0.0 **** 0.06
19236 C 17.136204228356632 24.52756770849056 57.457920477876 C 0.0 **** -0.24
19237 H 17.20654936762628 23.571647907127034 56.939012396285676 H 0.0 **** 0.06
19238 H 18.126117459005854 24.82775658674655 57.80212849591666 H 0.0 **** 0.06
19239 H 16.469361403881294 24.4269023677175 58.31484689913921 H 0.0 **** 0.06
19240 H 16.742556351904966 25.28292935717253 56.77831632573748 H 0.0 **** 0.06
19241 C 26.294975482383734 47.139934297241275 50.804222942655514 C 0.0 **** -0.24
19242 H 27.277084063679837 47.349380624327694 50.37985317942508 H 0.0 **** 0.06
19243 H 25.569577481466325 47.017107097929745 49.99881434280272 H 0.0 **** 0.06
19244 H 25.99179577130849 47.9679379593609 51.44377640678189 H 0.0 **** 0.06
19245 H 26.34226057310468 46.224050126684894 51.392791532973774 H 0.0 **** 0.06
19246 C 58.27126555069489 50.91235393763591 2.1815722383810368 C 0.0 **** -0.24
19247 H 58.948569030346135 50.76984226982003 3.0228350195747424 H 0.0 **** 0.06
19248 H 58.83115659754162 51.28715395254187 1.324409652648356 H 0.0 **** 0.06
19249 H 57.499599265689994 51.6325401020861 2.4551609463910324 H 0.0 **** 0.06
19250 H 57.805489300977314 49.96108448740276 1.9245807668151684 H 0.0 **** 0.06
19251 C 25.596158961963567 26.426923368928144 96.44315310804123 C 0.0 **** -0.24
19252 H 24.62045491456493 26.214722893486684 96.88111693226435 H 0.0 **** 0.06
19253 H 26.356561200639362 26.4086573588688 97.22483243041847 H 0.0 **** 0.06
19254 H 25.577834488552043 27.411547179489123 95.97714471637741 H 0.0 **** 0.06
19255 H 25.82866241473056 25.67289555730279 95.6914477858511 H 0.0 **** 0.06
19256 C 19.820072919977676 28.572813084771923 101.46173858474629 C 0.0 **** -0.24
19257 H 18.789608614835174 28.37718022070794 101.16460087222674 H 0.0 **** 0.06
19258 H 20.24260647461459 29.345369322700975 100.82002297867064 H 0.0 **** 0.06
19259 H 20.405350994412643 27.65882393865087 101.36462993793509 H 0.0 **** 0.06
19260 H 19.840441570437648 28.909060891410036 102.49803883338683 H 0.0 **** 0.06
19261 C 52.933223151007724 6.49050400933028 95.64274640360696 C 0.0 **** -0.24
19262 H 53.441471121515576 5.589982625148991 95.98539619292654 H 0.0 **** 0.06
19263 H 53.65426921915454 7.159547215871257 95.17175009710878 H 0.0 **** 0.06
19264 H 52.471861284831505 6.993632644391184 96.49284200867834 H 0.0 **** 0.06
19265 H 52.16350724245066 6.219515269673238 94.91982230701427 H 0.0 **** 0.06
19266 C 24.263778322066017 47.02670987886932 82.54166885672282 C 0.0 **** -0.24
19267 H 25.050657456658115 46.28249545666085 82.66530881238958 H 0.0 **** 0.06
19268 H 24.681242597550806 47.92418862946182 82.08453079593711 H 0.0 **** 0.06
19269 H 23.844106868931817 47.276074288825704 83.51646780515921 H 0.0 **** 0.06
19270 H 23.47957981279697 46.62321060675087 81.90178863171634 H 0.0 **** 0.06
19271 C 63.6805768672844 45.806634820900285 52.70492631665019 C 0.0 **** -0.24
19272 H 62.885643281469584 46.18855518069043 52.06531855877816 H 0.0 **** 0.06
19273 H 63.53570458631047 46.17223853685485 53.72185044555749 H 0.0 **** 0.06
19274 H 64.64502847787195 46.14961673842217 52.33007006099274 H 0.0 **** 0.06
19275 H 63.65680392637205 44.717584772050344 52.70281055446296 H 0.0 **** 0.06
19276 C 29.70824782526941 60.1333251754559 74.95403906004032 C 0.0 **** -0.24
19277 H 29.295335973310358 59.40161770530173 75.64873302562665 H 0.0 **** 0.06
19278 H 29.430179633159383 59.863635441925396 73.93484512950283 H 0.0 **** 0.06
19279 H 30.794376983539905 60.14603858985597 75.0438194506188 H 0.0 **** 0.06
19280 H 29.31295260871829 61.12135883255381 75.18950430745844 H 0.0 **** 0.06
19281 C 9.989009987615987 61.75342696321965 3.8592168929406796 C 0.0 **** -0.24
19282 H 9.171786301469496 61.31153967382366 3.287985907805279 H 0.0 **** 0.06
19283 H 9.629068845434944 62.03020463335443 4.8512150282342645 H 0.0 **** 0.06
19284 H 10.35383764352747 62.641619598716716 3.3438604077447565 H 0.0 **** 0.06
19285 H 10.797960829140777 61.029880131102544 3.954370311749983 H 0.0 **** 0.06
19286 C 93.07917650015517 11.7953429609246 79.34552974969813 C 0.0 **** -0.24
19287 H 93.29030849852762 11.094234824860877 78.5390365401297 H 0.0 **** 0.06
19288 H 92.01925404345161 12.051988608935005 79.33630133801154 H 0.0 **** 0.06
19289 H 93.6735460510645 12.6992662810419 79.20548596611991 H 0.0 **** 0.06
19290 H 93.33399754119071 11.337559845424593 80.30145420913169 H 0.0 **** 0.06
19291 C 24.49267232112001 89.63761861459564 88.83713927370468 C 0.0 **** -0.24
19292 H 25.135843527985628 89.31807386092383 89.65727991434484 H 0.0 **** 0.06
19293 H 25.090372102598508 90.15968591162635 88.08895581773191 H 0.0 **** 0.06
19294 H 23.722193937931337 90.30635145747287 89.21895347593431 H 0.0 **** 0.06
19295 H 24.024015414881774 88.76501470124737 88.38295672487254 H 0.0 **** 0.06
19296 C 80.14042440112198 62.01015310723206 40.37878951494508 C 0.0 **** -0.24
19297 H 80.91720623785824 62.373519433677245 41.050526466115684 H 0.0 **** 0.06
19298 H 80.52936377799786 61.179874228669846 39.78962159641293 H 0.0 **** 0.06
19299 H 79.83113560070369 62.81523417531115 39.71172980967708 H 0.0 **** 0.06
19300 H 79.28369704154967 61.672489134433604 40.96164967202009 H 0.0 **** 0.06
19301 C 67.95295680913972 82.01180020904621 103.01298615565226 C 0.0 **** -0.24
19302 H 68.22316315661331 81.68804794035816 104.01769291232425 H 0.0 **** 0.06
19303 H 66.86682044238361 82.04598842165848 102.92261077821544 H 0.0 **** 0.06
19304 H 68.35606094285964 81.30879354353914 102.28460895021554 H 0.0 **** 0.06
19305 H 68.36457439031687 83.00456118413251 102.82825833509008 H 0.0 **** 0.06
19306 C 0.0767545785163577 13.240623887211996 9.900226308750263 C 0.0 **** -0.24
19307 H 1.1131991234233283 13.168719342224833 10.227654285064347 H 0.0 **** 0.06
19308 H -0.13439824073842033 14.26097423913427 9.582332786402361 H 0.0 **** 0.06
19309 H -0.5844528255628347 12.971648966232607 10.7246703764811 H 0.0 **** 0.06
19310 H -0.08822110667854588 12.55834956418309 9.065659037613898 H 0.0 **** 0.06
19311 C 9.608428376265522 72.94866854256105 106.46138986468054 C 0.0 **** -0.24
19312 H 9.691965779025054 74.03331966369024 106.52656759296659 H 0.0 **** 0.06
19313 H 10.008449585868846 72.49875222429489 107.37009446438597 H 0.0 **** 0.06
19314 H 10.174142977585973 72.59285811204137 105.5998942656351 H 0.0 **** 0.06
19315 H 8.560903057254677 72.67160444492845 106.34713639989448 H 0.0 **** 0.06
19316 C 78.04224697232331 81.7692064876411 100.49773252578086 C 0.0 **** -0.24
19317 H 77.30539378132056 82.54917718813236 100.31035400254018 H 0.0 **** 0.06
19318 H 77.56862436040413 80.79172547561083 100.40233736853742 H 0.0 **** 0.06
19319 H 78.44393713692327 81.88240294897889 101.50459014836832 H 0.0 **** 0.06
19320 H 78.85147631643132 81.85267794555496 99.77260283394355 H 0.0 **** 0.06
19321 C 53.69958969335593 43.171491410379595 53.349427980673795 C 0.0 **** -0.24
19322 H 53.8718436562107 42.18071871449756 52.927469686382274 H 0.0 **** 0.06
19323 H 53.53364724756784 43.88471618233302 52.54186544465848 H 0.0 **** 0.06
19324 H 54.57036379383433 43.47500600797743 53.93038241249448 H 0.0 **** 0.06
19325 H 52.8229153715007 43.14413633858397 53.99601866086378 H 0.0 **** 0.06
19326 C 94.41569579069505 42.40120845875248 3.963225438984466 C 0.0 **** -0.24
19327 H 94.42403239821057 41.605079797660984 3.2185259156530037 H 0.0 **** 0.06
19328 H 95.39133855668096 42.887687173598756 3.9852573014105133 H 0.0 **** 0.06
19329 H 94.19764984808425 41.97881650093741 4.943686386438628 H 0.0 **** 0.06
19330 H 93.65140022215826 43.132729535862744 3.7044092495129917 H 0.0 **** 0.06
19331 C 92.40441876720979 37.547505826076645 36.254962236121116 C 0.0 **** -0.24
19332 H 93.25896955957336 37.01376526309423 35.8390023046922 H 0.0 **** 0.06
19333 H 91.50769437275233 36.936419415760724 36.149940865247146 H 0.0 **** 0.06
19334 H 92.26956312456326 38.488108079262105 35.72024633195889 H 0.0 **** 0.06
19335 H 92.58423096490722 37.75221877416948 37.3105283904475 H 0.0 **** 0.06
19336 C 17.955901321542257 40.51633466171822 77.58806184870456 C 0.0 **** -0.24
19337 H 18.13797696065366 39.718859404986404 78.30906491628996 H 0.0 **** 0.06
19338 H 17.519457491001333 40.09517011185696 76.68212424917482 H 0.0 **** 0.06
19339 H 18.897234987483074 41.007401923427466 77.3437269795102 H 0.0 **** 0.06
19340 H 17.26786700435858 41.24422104081938 78.01951284552389 H 0.0 **** 0.06
19341 C 8.356014920621988 99.19199931086834 67.93578332472974 C 0.0 **** -0.24
19342 H 8.381550337293277 100.26039581361528 68.15294137071665 H 0.0 **** 0.06
19343 H 8.446394573995349 98.63029676554845 68.86560345927668 H 0.0 **** 0.06
19344 H 9.18249358178474 98.9364343736093 67.27283288715499 H 0.0 **** 0.06
19345 H 7.411454225047237 98.9431848243707 67.45078207992314 H 0.0 **** 0.06
19346 C 17.765258613164804 36.44859300098918 4.990996942925264 C 0.0 **** -0.24
19347 H 18.346263621751746 36.893645416877646 5.799821592764232 H 0.0 **** 0.06
19348 H 17.48360460546263 37.223932266702604 4.277163041086311 H 0.0 **** 0.06
19349 H 16.865695523625277 35.98899355076145 5.401521413286844 H 0.0 **** 0.06
19350 H 18.36469727768292 35.69015947290704 4.487441008709908 H 0.0 **** 0.06
19351 C 87.80123291285781 102.14433733973425 64.16030244535476 C 0.0 **** -0.24
19352 H 88.35075664317435 101.8088737328174 65.04067544189513 H 0.0 **** 0.06
19353 H 88.17169756136389 103.12253240278034 63.852187022997285 H 0.0 **** 0.06
19354 H 86.74088780441684 102.21506116676153 64.40019834453075 H 0.0 **** 0.06
19355 H 87.94377028826511 101.42942612492442 63.34991688246967 H 0.0 **** 0.06
19356 C 1.4268137690200575 69.57789057088792 96.21650021555408 C 0.0 **** -0.24
19357 H 1.5343795747205462 69.61315995214972 97.30069825306359 H 0.0 **** 0.06
19358 H 0.5088763599865587 69.04867299103557 95.95947025015408 H 0.0 **** 0.06
19359 H 2.280778822910179 69.05648961174705 95.78448584350505 H 0.0 **** 0.06
19360 H 1.3837390056862517 70.59303987536862 95.82217782066684 H 0.0 **** 0.06
19361 C 44.77625744047121 70.3410590348835 95.19053316033322 C 0.0 **** -0.24
19362 H 44.364809731876754 71.19541674962477 94.6534266838544 H 0.0 **** 0.06
19363 H 45.23248086504478 69.6517925847867 94.47889580434926 H 0.0 **** 0.06
19364 H 43.97742685187827 69.83154582581625 95.72891746941147 H 0.0 **** 0.06
19365 H 45.530258725607595 70.68550976953657 95.8971514347044 H 0.0 **** 0.06
19366 C 100.41530717778926 56.12542851990534 11.895231256703283 C 0.0 **** -0.24
19367 H 100.09942540414669 56.85071684869746 11.144430139197098 H 0.0 **** 0.06
19368 H 100.71447376625208 56.649555869529934 12.803344474744065 H 0.0 **** 0.06
19369 H 101.25787435033635 55.550546978482004 11.511784454884634 H 0.0 **** 0.06
19370 H 99.58732510782279 55.45302539210999 12.119147356493315 H 0.0 **** 0.06
19371 C 105.49193685831143 16.617890702923994 90.62972804561025 C 0.0 **** -0.24
19372 H 105.72151598972539 17.391866197728458 89.89786533355647 H 0.0 **** 0.06
19373 H 106.40734024679237 16.316778003133518 91.13921552395317 H 0.0 **** 0.06
19374 H 105.05697813959681 15.756716662085065 90.1232876697191 H 0.0 **** 0.06
19375 H 104.78045317282059 17.008129657382327 91.35815256249572 H 0.0 **** 0.06
19376 C 75.96790339734503 3.8917286667537923 56.84409715977804 C 0.0 **** -0.24
19377 H 75.0936010389907 4.527724885135257 56.98333764237311 H 0.0 **** 0.06
19378 H 76.67485755043629 4.065518461497447 57.65455726457469 H 0.0 **** 0.06
19379 H 76.44047005205891 4.129127549673257 55.89135102240176 H 0.0 **** 0.06
19380 H 75.66007048659424 2.8461626537622067 56.8478804565024 H 0.0 **** 0.06
19381 C 68.50304944221139 42.31419865887818 58.49562370491487 C 0.0 **** -0.24
19382 H 69.29285687637028 42.875243973422016 58.99645615097296 H 0.0 **** 0.06
19383 H 68.32196794588819 42.74387305992798 57.50937464919129 H 0.0 **** 0.06
19384 H 67.59025878455995 42.367033229457775 59.08831113668445 H 0.0 **** 0.06
19385 H 68.80860161924673 41.27360306605425 58.39009479249822 H 0.0 **** 0.06
19386 C 77.27941118280359 99.10769630733864 93.1172777618231 C 0.0 **** -0.24
19387 H 77.0565344348868 99.9875999038353 93.72084990170308 H 0.0 **** 0.06
19388 H 78.28796570587667 99.19204450625995 92.71186453051904 H 0.0 **** 0.06
19389 H 76.56288923914246 99.03619666391023 92.29950714977379 H 0.0 **** 0.06
19390 H 77.21088021166219 98.21486938543836 93.73903520275461 H 0.0 **** 0.06
19391 C 96.79579776168656 45.74809008483126 43.89809379943622 C 0.0 **** -0.24
19392 H 96.11021846155123 44.97382989038135 44.24302408068771 H 0.0 **** 0.06
19393 H 97.48131002351055 46.01146529706554 44.7040355947917 H 0.0 **** 0.06
19394 H 96.22647444187871 46.62900810607158 43.601191267300884 H 0.0 **** 0.06
19395 H 97.36215823284982 45.37645744437896 43.04463573603173 H 0.0 **** 0.06
19396 C 43.86519318982971 47.21366332420041 24.455089023733166 C 0.0 **** -0.24
19397 H 44.24593413536965 46.37580594569573 23.870149625229203 H 0.0 **** 0.06
19398 H 42.775745501819515 47.20971356483088 24.426949667031963 H 0.0 **** 0.06
19399 H 44.23608599854489 48.14834327831656 24.033762970930596 H 0.0 **** 0.06
19400 H 44.203421693451475 47.12016504045178 25.486111898151776 H 0.0 **** 0.06
19401 C 56.91915908852712 55.064002425942036 32.47927174142106 C 0.0 **** -0.24
19402 H 56.14319873212519 55.371042281555695 33.179297942621076 H 0.0 **** 0.06
19403 H 56.49764191200758 54.99489681576791 31.476781162268423 H 0.0 **** 0.06
19404 H 57.31275514543945 54.09083810278817 32.77608336804957 H 0.0 **** 0.06
19405 H 57.725601855171675 55.79803389388922 32.484983596830915 H 0.0 **** 0.06
19406 C 58.719335867411644 36.06239034885107 34.309164825323556 C 0.0 **** -0.24
19407 H 57.99419708783864 36.87465338633484 34.271018171153806 H 0.0 **** 0.06
19408 H 59.2354399503796 36.08139063849421 35.26907485968672 H 0.0 **** 0.06
19409 H 59.443726909139684 36.18367015152063 33.50477719415515 H 0.0 **** 0.06
19410 H 58.20306226281906 35.10912492592092 34.19258721149436 H 0.0 **** 0.06
19411 C 105.63754887058572 27.59814809154426 89.88742842808065 C 0.0 **** -0.24
19412 H 104.85508995008016 27.81486046356582 90.61451403626042 H 0.0 **** 0.06
19413 H 105.24182980514584 27.724190368577467 88.87960479426113 H 0.0 **** 0.06
19414 H 105.9789290571325 26.570224850993384 90.01696673113707 H 0.0 **** 0.06
19415 H 106.47329293127365 28.279922022968037 90.0392335565984 H 0.0 **** 0.06
19416 C 89.46275057465304 90.64301391247336 73.6453409322599 C 0.0 **** -0.24
19417 H 90.3366996174153 90.80423402343476 74.27686438921558 H 0.0 **** 0.06
19418 H 89.70785369232895 89.92220948258701 72.86407514477244 H 0.0 **** 0.06
19419 H 89.16619529165264 91.58714601945815 73.1891313244468 H 0.0 **** 0.06
19420 H 88.64321524073503 90.25799618962942 74.25119887214771 H 0.0 **** 0.06
19421 C 87.49888860391934 100.3339470728833 44.21358921994556 C 0.0 **** -0.24
19422 H 87.4335930441247 99.26132071373955 44.028597510065595 H 0.0 **** 0.06
19423 H 87.06738942523675 100.5605077837201 45.188974501252005 H 0.0 **** 0.06
19424 H 86.94933092736198 100.87025115616377 43.439327607591 H 0.0 **** 0.06
19425 H 88.54447328247723 100.64264236819324 44.19798046417043 H 0.0 **** 0.06
19426 C 16.94408827637065 93.4938077946005 60.806641864305746 C 0.0 **** -0.24
19427 H 16.599023197671386 93.014711304968 59.88982977860793 H 0.0 **** 0.06
19428 H 17.899303006063178 93.98599611132062 60.621895494457874 H 0.0 **** 0.06
19429 H 17.066038718946203 92.74196866954627 61.585968303204794 H 0.0 **** 0.06
19430 H 16.210082215017138 94.23295193035662 61.127773864219705 H 0.0 **** 0.06
19431 C 65.28517760814066 74.88207541754302 33.66420928015043 C 0.0 **** -0.24
19432 H 64.73515871689135 74.83528288945551 34.60461048716883 H 0.0 **** 0.06
19433 H 65.51829010380482 75.9213167328563 33.43190609335085 H 0.0 **** 0.06
19434 H 64.67624352881548 74.45870210335804 32.86584344900194 H 0.0 **** 0.06
19435 H 66.21067551738105 74.31380032062081 33.75559160394539 H 0.0 **** 0.06
19436 C 8.115950082071185 27.23721148291679 7.5437070919516955 C 0.0 **** -0.24
19437 H 9.005206312177897 27.21822568762508 8.17358532938145 H 0.0 **** 0.06
19438 H 8.410520575955097 27.376081247118492 6.503161008505579 H 0.0 **** 0.06
19439 H 7.47093544686734 28.060182046304476 7.851498055868319 H 0.0 **** 0.06
19440 H 7.577896864753852 26.295547128805765 7.646496326616392 H 0.0 **** 0.06
19441 C 49.1851084277269 105.3315490694963 104.53638776082781 C 0.0 **** -0.24
19442 H 50.23446163830829 105.44944304481703 104.80721532676796 H 0.0 **** 0.06
19443 H 48.58472566091615 105.23855891712344 105.44169936434487 H 0.0 **** 0.06
19444 H 49.06559894562514 104.43548039511757 103.92679514685587 H 0.0 **** 0.06
19445 H 48.85564746605809 106.20271392092707 103.96984120534273 H 0.0 **** 0.06
19446 C 13.306920108414289 34.26524051885991 31.60561344290528 C 0.0 **** -0.24
19447 H 12.460912847979955 34.894898184472424 31.881199452422265 H 0.0 **** 0.06
19448 H 13.035732920185382 33.216710921214144 31.72996340743299 H 0.0 **** 0.06
19449 H 14.157106828577412 34.499272502661455 32.245460477423876 H 0.0 **** 0.06
19450 H 13.573498629951501 34.45128667518614 30.56522965525403 H 0.0 **** 0.06
19451 C 83.80869739529106 83.5547292732354 3.8258960213923388 C 0.0 **** -0.24
19452 H 83.09929562512988 83.01164848921132 4.451116896921064 H 0.0 **** 0.06
19453 H 83.76725512671592 84.6167011472318 4.068077744158629 H 0.0 **** 0.06
19454 H 83.55203878383831 83.4102739149362 2.776191425919734 H 0.0 **** 0.06
19455 H 84.8148195111375 83.17863026238565 4.009350365565027 H 0.0 **** 0.06
19456 C 84.14735341631959 87.39802234366459 93.5554220338267 C 0.0 **** -0.24
19457 H 83.72975196972916 87.26817938284816 94.55376342679787 H 0.0 **** 0.06
19458 H 83.44013489998196 87.94944673677253 92.93499487077926 H 0.0 **** 0.06
19459 H 84.33751338022813 86.4212561993173 93.10997077913119 H 0.0 **** 0.06
19460 H 85.08150614750846 87.95538487773086 93.62295999600781 H 0.0 **** 0.06
19461 C 28.24165887031296 87.32281998192505 95.35825426341808 C 0.0 **** -0.24
19462 H 28.344715786733133 86.61491389258332 94.5351837935878 H 0.0 **** 0.06
19463 H 29.230792374473566 87.60786745800478 95.71653146038088 H 0.0 **** 0.06
19464 H 27.68059040965568 86.85793144199627 96.16851132414851 H 0.0 **** 0.06
19465 H 27.71148895843831 88.20944167907462 95.00949995100132 H 0.0 **** 0.06
19466 C 66.1816586875756 47.98607721207452 16.737634124032226 C 0.0 **** -0.24
19467 H 67.15175680520515 48.24849161374203 17.158569970517647 H 0.0 **** 0.06
19468 H 65.47054231415774 47.81098521655258 17.545394012152144 H 0.0 **** 0.06
19469 H 66.2785768386027 47.08236763441846 16.136568782740255 H 0.0 **** 0.06
19470 H 65.82460454916558 48.80319861580716 16.11036250340686 H 0.0 **** 0.06
19471 C 75.35034319708888 27.213963755263165 50.69033546853281 C 0.0 **** -0.24
19472 H 75.33224590705238 28.3006095965049 50.605742210101326 H 0.0 **** 0.06
19473 H 74.66253953070819 26.898908799985776 51.4753445261805 H 0.0 **** 0.06
19474 H 76.36018778960381 26.886821713868443 50.93914004855858 H 0.0 **** 0.06
19475 H 75.04838765303516 26.770819625295957 49.741702869963675 H 0.0 **** 0.06
19476 C 40.81933066380978 24.979576205126524 92.35011581754998 C 0.0 **** -0.24
19477 H 40.17145742025426 25.436151031454493 93.09889177246609 H 0.0 **** 0.06
19478 H 40.2760867502075 24.883997905224845 91.40957842804443 H 0.0 **** 0.06
19479 H 41.131037974746334 23.993307458201098 92.69346433344367 H 0.0 **** 0.06
19480 H 41.69823503621467 25.606627087952536 92.19978614898187 H 0.0 **** 0.06
19481 C 10.61024488523205 43.27811935973225 2.099472407739171 C 0.0 **** -0.24
19482 H 10.370180795890377 44.20652313859222 1.5809742133437368 H 0.0 **** 0.06
19483 H 10.069062640582047 42.45278699759166 1.6362402824496343 H 0.0 **** 0.06
19484 H 10.320235474151758 43.361222306032744 3.1467608762508092 H 0.0 **** 0.06
19485 H 11.682261120583433 43.09299890558435 2.033356564802375 H 0.0 **** 0.06
19486 C 84.6448855747712 91.12270353577571 83.3613081175128 C 0.0 **** -0.24
19487 H 83.65162210231958 90.68656089835906 83.258916988198 H 0.0 **** 0.06
19488 H 84.55628451034931 92.1401424064847 83.74410410802665 H 0.0 **** 0.06
19489 H 85.13658485529794 91.14124719874906 82.38881819690968 H 0.0 **** 0.06
19490 H 85.23504700416231 90.52435440151595 84.05505986352071 H 0.0 **** 0.06
19491 C 76.86022467729555 64.42045084763092 95.17698562532479 C 0.0 **** -0.24
19492 H 76.8538700852547 65.37555766385279 95.70256560450053 H 0.0 **** 0.06
19493 H 76.20926477541252 64.48142770930511 94.3049123886929 H 0.0 **** 0.06
19494 H 76.5017461138068 63.6365645176725 95.8453291900929 H 0.0 **** 0.06
19495 H 77.87678397843933 64.18857244499623 94.85721170301507 H 0.0 **** 0.06
19496 C 31.599200026291697 44.15433177887276 2.1650279249221285 C 0.0 **** -0.24
19497 H 30.579799814055065 44.202774341298536 2.5490465100790516 H 0.0 **** 0.06
19498 H 32.00861427759921 43.16055388788242 2.3477714742770104 H 0.0 **** 0.06
19499 H 32.213355121812185 44.8991927456605 2.67211708278046 H 0.0 **** 0.06
19500 H 31.593477278878282 44.35490288617529 1.094105358218826 H 0.0 **** 0.06
19501 C 62.43654407511349 59.14611344401641 66.77056254999698 C 0.0 **** -0.24
19502 H 61.94654216484197 58.21291665400079 67.04903266469046 H 0.0 **** 0.06
19503 H 63.50797364978317 58.974424626015065 66.66117158360322 H 0.0 **** 0.06
19504 H 62.264606792318986 59.89082952332333 67.54719129211938 H 0.0 **** 0.06
19505 H 62.02683424948259 59.50340586393065 65.82567594133451 H 0.0 **** 0.06
19506 C 13.154840627304225 56.77622354743794 35.64648816719574 C 0.0 **** -0.24
19507 H 13.787587561324472 55.93395831989612 35.925314788195436 H 0.0 **** 0.06
19508 H 12.96005712588942 57.39106697275314 36.525714360537876 H 0.0 **** 0.06
19509 H 12.210827566091893 56.40545691124935 35.24739527091137 H 0.0 **** 0.06
19510 H 13.658741758104725 57.37448011116071 34.888144322477956 H 0.0 **** 0.06
19511 C 36.06775743193603 87.90637779600985 101.0335075152233 C 0.0 **** -0.24
19512 H 35.112885298746704 88.2226755002714 100.61297605977906 H 0.0 **** 0.06
19513 H 36.26953865043771 88.47136862235531 101.94319998203956 H 0.0 **** 0.06
19514 H 36.86105375216965 88.0890342234806 100.30838800611279 H 0.0 **** 0.06
19515 H 36.02597801102371 86.84265817246765 101.26622991985455 H 0.0 **** 0.06
19516 C 104.91604082108509 38.86092654292307 40.44973622961135 C 0.0 **** -0.24
19517 H 105.41422693647533 38.02904736353136 40.94673451124277 H 0.0 **** 0.06
19518 H 105.65408429019877 39.61599028364404 40.17699396341692 H 0.0 **** 0.06
19519 H 104.1803369100073 39.299250717879914 41.12450315796224 H 0.0 **** 0.06
19520 H 104.41563883723839 38.50017958075702 39.55134924739923 H 0.0 **** 0.06
19521 C 45.94080275954914 21.55902358121324 95.80334807487314 C 0.0 **** -0.24
19522 H 45.40022729929887 21.438926651985525 96.74186050239902 H 0.0 **** 0.06
19523 H 46.83859598290532 20.940939953718726 95.81921232465933 H 0.0 **** 0.06
19524 H 46.22175344220796 22.605367914240674 95.67743132452566 H 0.0 **** 0.06
19525 H 45.30222267834014 21.253057267463248 94.97493224800175 H 0.0 **** 0.06
19526 C 1.4906061878516539 100.10607286293178 73.00401538714644 C 0.0 **** -0.24
19527 H 0.40325517883258044 100.03475721415663 72.95911961905398 H 0.0 **** 0.06
19528 H 1.8232596188370849 100.95880445511018 72.41213513306809 H 0.0 **** 0.06
19529 H 1.9307496780499491 99.19196755876474 72.6059991925967 H 0.0 **** 0.06
19530 H 1.8035291031513339 100.23823174821406 74.04024221258072 H 0.0 **** 0.06
19531 C 101.61542832860498 22.762564314424566 105.2541284994408 C 0.0 **** -0.24
19532 H 102.47634428842134 22.611154492041862 104.60298375167345 H 0.0 **** 0.06
19533 H 101.39944266919869 21.837992608999883 105.79029181683958 H 0.0 **** 0.06
19534 H 100.75059401066046 23.045223314847277 104.65391670463886 H 0.0 **** 0.06
19535 H 101.83722678956073 23.554808224928337 105.96981962016795 H 0.0 **** 0.06
19536 C 63.353168215418236 16.814828075998506 64.56134656276514 C 0.0 **** -0.24
19537 H 63.87029433717811 17.430501521851625 63.8252810106239 H 0.0 **** 0.06
19538 H 62.93328431272931 17.454416152254026 65.33881899841292 H 0.0 **** 0.06
19539 H 64.05886237810012 16.11408940160908 65.0091353891839 H 0.0 **** 0.06
19540 H 62.55165641755343 16.26061735615022 64.07308534472466 H 0.0 **** 0.06
19541 C 64.98568011539268 19.591535897641535 59.32594959998016 C 0.0 **** -0.24
19542 H 64.20724020344929 20.348150460104023 59.230443634442736 H 0.0 **** 0.06
19543 H 65.93637845949547 20.074446407776804 59.55406985222015 H 0.0 **** 0.06
19544 H 65.0731324911574 19.039997544675458 58.38990193505856 H 0.0 **** 0.06
19545 H 64.72592359341687 18.903427454789806 60.13079123448989 H 0.0 **** 0.06
19546 C 44.99299565722583 9.762807653135638 93.15649414214414 C 0.0 **** -0.24
19547 H 45.05872504301158 10.683786141213687 93.73624754158476 H 0.0 **** 0.06
19548 H 45.96869899022198 9.275783975851425 93.13747526468285 H 0.0 **** 0.06
19549 H 44.684495321772374 9.997149449459897 92.13758090706159 H 0.0 **** 0.06
19550 H 44.26257577672675 9.096223319515047 93.61380342469687 H 0.0 **** 0.06
19551 C 5.029092260566415 78.70811075179512 13.146521601260076 C 0.0 **** -0.24
19552 H 6.0343174356860345 78.75471316439373 13.564778993371334 H 0.0 **** 0.06
19553 H 4.572785900766348 79.69689915639458 13.187590826750991 H 0.0 **** 0.06
19554 H 4.427265897105173 78.0057588969446 13.724665772790416 H 0.0 **** 0.06
19555 H 5.081178671125514 78.37450954037615 12.110785687697856 H 0.0 **** 0.06
19556 C 43.87954103499629 85.34399980524026 85.1019290346216 C 0.0 **** -0.24
19557 H 43.414060222009255 85.33508429147756 84.11634705700652 H 0.0 **** 0.06
19558 H 43.84198595726616 86.3534591954446 85.51163267252201 H 0.0 **** 0.06
19559 H 44.91770150051963 85.02411953930351 85.0160329239302 H 0.0 **** 0.06
19560 H 43.342791203259196 84.66292306372287 85.76222426465341 H 0.0 **** 0.06
19561 C 86.11146794232539 97.09013934405078 73.08206939442181 C 0.0 **** -0.24
19562 H 86.82420523436461 96.62682667993084 73.7651665244473 H 0.0 **** 0.06
19563 H 85.47189665802395 97.77732221803177 73.63610277148487 H 0.0 **** 0.06
19564 H 85.49932096156357 96.31766541879767 72.61713521300629 H 0.0 **** 0.06
19565 H 86.65230016534665 97.63891388372377 72.31061054871805 H 0.0 **** 0.06
19566 C 94.38670631470353 46.36955166667741 49.05699960776141 C 0.0 **** -0.24
19567 H 94.22873588257518 47.085934728962286 48.25069484751553 H 0.0 **** 0.06
19568 H 94.32036715460775 46.883288994827694 50.01613139644124 H 0.0 **** 0.06
19569 H 95.37249088154813 45.918392899948174 48.95336000124895 H 0.0 **** 0.06
19570 H 93.62350534211582 45.59259471712281 49.00681089619817 H 0.0 **** 0.06
19571 C 71.23892939518714 46.82358842132746 32.62763853595448 C 0.0 **** -0.24
19572 H 72.25129516151594 47.196290176792445 32.784841215264564 H 0.0 **** 0.06
19573 H 70.59816446662472 47.16034920671339 33.44389663642563 H 0.0 **** 0.06
19574 H 71.2532480902687 45.73360240661554 32.60269446764352 H 0.0 **** 0.06
19575 H 70.85433825926503 47.2042323395574 31.68215849392447 H 0.0 **** 0.06
19576 C 69.72219646350773 88.67370067688816 78.4279786586404 C 0.0 **** -0.24
19577 H 70.19292298806545 88.84861827118947 79.39569768150189 H 0.0 **** 0.06
19578 H 69.59006070153121 87.60274956927046 78.27807030012183 H 0.0 **** 0.06
19579 H 70.35578624885682 89.07736741487764 77.63785659072609 H 0.0 **** 0.06
19580 H 68.75102976267726 89.16791808874916 78.40338003035866 H 0.0 **** 0.06
19581 C 106.10888664327568 81.05103156984805 27.889973603167505 C 0.0 **** -0.24
19582 H 106.31251887565462 81.4896473275376 26.913604925744096 H 0.0 **** 0.06
19583 H 106.84092984456798 81.41374650243114 28.611894900961488 H 0.0 **** 0.06
19584 H 106.17424836705123 79.96462340543741 27.821293864699896 H 0.0 **** 0.06
19585 H 105.1067788270823 81.33477879453741 28.21454445132713 H 0.0 **** 0.06
19586 C 37.82314915621106 58.83500810628361 15.01609933627347 C 0.0 **** -0.24
19587 H 37.401539365760044 58.0273262194026 15.614081645683683 H 0.0 **** 0.06
19588 H 37.38468092710421 58.81658404558493 14.018445155532902 H 0.0 **** 0.06
19589 H 38.90271025531776 58.70543653684896 14.941737157182587 H 0.0 **** 0.06
19590 H 37.603938169678074 59.79140875707986 15.49223178445611 H 0.0 **** 0.06
19591 C 53.88957716430218 74.34162065221341 88.28031432906391 C 0.0 **** -0.24
19592 H 54.89250926248383 74.75243730344795 88.16538573720811 H 0.0 **** 0.06
19593 H 53.249182520143506 75.07612606352532 88.76941783657321 H 0.0 **** 0.06
19594 H 53.935417220800986 73.43782288058998 88.88767828299507 H 0.0 **** 0.06
19595 H 53.4823574363177 74.09930545097416 87.29896010119774 H 0.0 **** 0.06
19596 C 37.999669584510286 51.48346931777788 42.90795767636173 C 0.0 **** -0.24
19597 H 38.21499656147782 50.51919611495014 42.447101720120344 H 0.0 **** 0.06
19598 H 37.113172972965685 51.91699271776104 42.44595996219779 H 0.0 **** 0.06
19599 H 38.84928336568939 52.152124845070645 42.76430189336503 H 0.0 **** 0.06
19600 H 37.82314493868594 51.344420283986494 43.9745598160633 H 0.0 **** 0.06
19601 C 100.84922789424535 38.48709178481104 85.01534021005088 C 0.0 **** -0.24
19602 H 100.83178094993649 37.39717172480249 85.01723236119446 H 0.0 **** 0.06
19603 H 101.85513281175024 38.833530391286274 85.25114578031355 H 0.0 **** 0.06
19604 H 100.15036644321087 38.862145117437024 85.76367263747521 H 0.0 **** 0.06
19605 H 100.55856101834219 38.853278568290165 84.03066324922801 H 0.0 **** 0.06
19606 C 21.267752361746957 61.84689618806347 103.49563119841724 C 0.0 **** -0.24
19607 H 20.983719235161754 62.73471854192907 102.93111960948777 H 0.0 **** 0.06
19608 H 22.353345837852412 61.805897191642316 103.5872642529291 H 0.0 **** 0.06
19609 H 20.912640525861814 60.957276586946804 102.97417427939338 H 0.0 **** 0.06
19610 H 20.81981715065669 61.8882462189092 104.48866339615621 H 0.0 **** 0.06
19611 C 33.37360939663256 5.42946469399071 90.5620527788488 C 0.0 **** -0.24
19612 H 33.74014763036135 5.658855764188331 89.56161829558877 H 0.0 **** 0.06
19613 H 32.29492494757076 5.27492649057767 90.5268315207247 H 0.0 **** 0.06
19614 H 33.60001676086199 6.260654022047262 91.23004808211333 H 0.0 **** 0.06
19615 H 33.858898277535815 4.525463320721968 90.92891772695083 H 0.0 **** 0.06
19616 C 18.71423124289217 63.26325212527338 3.1768647594589083 C 0.0 **** -0.24
19617 H 18.512361821223863 64.32708392940499 3.0525654075471493 H 0.0 **** 0.06
19618 H 18.098237475685025 62.692343968432056 2.4813366792003535 H 0.0 **** 0.06
19619 H 18.479185519438474 62.965455786840835 4.198869931051377 H 0.0 **** 0.06
19620 H 19.76738154934249 63.067222494203676 2.9750442168347035 H 0.0 **** 0.06
19621 C 73.38214982016805 62.862926042360925 17.92424835791917 C 0.0 **** -0.24
19622 H 72.38065368704092 62.56756129134048 17.61311202516208 H 0.0 **** 0.06
19623 H 74.11920361452643 62.39429341761699 17.272052927010748 H 0.0 **** 0.06
19624 H 73.55196331994475 62.54356644306486 18.953190336601835 H 0.0 **** 0.06
19625 H 73.47702408338513 63.94722794229358 17.86006888469612 H 0.0 **** 0.06
19626 C 85.96407374792341 84.26127848296315 24.891269920026076 C 0.0 **** -0.24
19627 H 85.62906694465468 84.7831138462904 23.994461113709292 H 0.0 **** 0.06
19628 H 86.38267982224059 83.29432462691642 24.613684141513488 H 0.0 **** 0.06
19629 H 85.11827861141609 84.11277442394942 25.561545067873283 H 0.0 **** 0.06
19630 H 86.72663429219969 84.85653835184064 25.393604286080148 H 0.0 **** 0.06
19631 C 20.417592022304888 7.280123629927914 63.16772512216082 C 0.0 **** -0.24
19632 H 19.42551238985179 7.625308838237444 62.874757661751374 H 0.0 **** 0.06
19633 H 20.47082572764124 6.196523397446384 63.06444203018478 H 0.0 **** 0.06
19634 H 20.605311597477893 7.556517996545338 64.20642639508452 H 0.0 **** 0.06
19635 H 21.167864062908663 7.744779836508499 62.52735396552899 H 0.0 **** 0.06
19636 C 68.69762540749636 86.27829444548294 102.5322127729959 C 0.0 **** -0.24
19637 H 67.90535713140638 86.7944200251269 101.98987055912711 H 0.0 **** 0.06
19638 H 69.37929113224891 87.01196048214638 102.96352325655036 H 0.0 **** 0.06
19639 H 69.24454404129406 85.63083843506973 101.84722707734431 H 0.0 **** 0.06
19640 H 68.26000343093528 85.67701870217246 103.32864428837902 H 0.0 **** 0.06
19641 C 53.33423257541429 32.43094061550871 74.18648555345146 C 0.0 **** -0.24
19642 H 53.77175979675254 32.88006778815674 73.2953927531741 H 0.0 **** 0.06
19643 H 52.466761616739895 33.01190816813143 74.49805175811235 H 0.0 **** 0.06
19644 H 54.07286063669716 32.42191142074301 74.98822789592089 H 0.0 **** 0.06
19645 H 53.02741741877878 31.409200921207102 73.96404198884204 H 0.0 **** 0.06
19646 C 47.600026023574685 3.339693208229434 14.342843180298132 C 0.0 **** -0.24
19647 H 47.87809181148236 2.9371957255063563 15.317097725793204 H 0.0 **** 0.06
19648 H 47.160100681846245 2.548482788959106 13.735660770504623 H 0.0 **** 0.06
19649 H 48.487088164532906 3.7301802427407154 13.844923203271833 H 0.0 **** 0.06
19650 H 46.874093082631816 4.142926375116247 14.475261553439722 H 0.0 **** 0.06
19651 C 19.733726988524793 84.55496143131418 44.92935229587391 C 0.0 **** -0.24
19652 H 20.16263835734628 85.51781557810739 45.20415871224395 H 0.0 **** 0.06
19653 H 20.34603842614034 83.75336903276933 45.342898007175506 H 0.0 **** 0.06
19654 H 19.70523303637509 84.46656605424505 43.84324960007501 H 0.0 **** 0.06
19655 H 18.721741003158698 84.48093043777848 45.32679972603239 H 0.0 **** 0.06
19656 C 32.569044584874334 101.05100363815107 105.21623063355085 C 0.0 **** -0.24
19657 H 31.99096664337968 100.74110736291385 104.34579459991366 H 0.0 **** 0.06
19658 H 33.42169429497579 100.38389293518186 105.34256544584476 H 0.0 **** 0.06
19659 H 31.938214292036562 101.00927876390834 106.1040289627004 H 0.0 **** 0.06
19660 H 32.92504611376824 102.07180719186077 105.07125200962248 H 0.0 **** 0.06
19661 C 33.00093380386389 30.27787176041423 57.19533956015764 C 0.0 **** -0.24
19662 H 33.75356974529399 30.821450389617937 56.62375391831539 H 0.0 **** 0.06
19663 H 33.17873938952428 30.42348336852413 58.260858749420386 H 0.0 **** 0.06
19664 H 33.06291934033317 29.215416664565183 56.95783858348949 H 0.0 **** 0.06
19665 H 32.01024946656182 30.651469914772093 56.93721817462208 H 0.0 **** 0.06
19666 C 21.18355729701429 67.43651304187007 2.757777253049852 C 0.0 **** -0.24
19667 H 21.690867221070704 67.61122429207639 1.8097618211923532 H 0.0 **** 0.06
19668 H 20.56168238519551 66.54485570779785 2.677387537187286 H 0.0 **** 0.06
19669 H 20.557988168024224 68.29621630530752 2.9991178778294056 H 0.0 **** 0.06
19670 H 21.924229056126137 67.29395299420032 3.5456616087508337 H 0.0 **** 0.06
19671 C 3.4484478808873575 90.97307316975565 8.35436251309352 C 0.0 **** -0.24
19672 H 2.626682930790416 90.66780404077318 7.705774908130934 H 0.0 **** 0.06
19673 H 3.181268052178603 91.89736642969355 8.868000207986825 H 0.0 **** 0.06
19674 H 4.342867108544193 91.1359918241463 7.754702298254898 H 0.0 **** 0.06
19675 H 3.639760434686595 90.19171454764664 9.089552213598168 H 0.0 **** 0.06
19676 C 77.17020586799407 10.883991430255932 12.06143070232234 C 0.0 **** -0.24
19677 H 76.7892641463664 10.652732666965278 11.06697986391059 H 0.0 **** 0.06
19678 H 78.15695898625762 11.33700463343297 11.975955902477978 H 0.0 **** 0.06
19679 H 77.24065438315199 9.966020136150618 12.6450345259437 H 0.0 **** 0.06
19680 H 76.49130754905127 11.579002768877912 12.556987040443957 H 0.0 **** 0.06
19681 C 29.780964043141175 63.79470859165224 75.4004847918041 C 0.0 **** -0.24
19682 H 29.91841851842924 64.67558458070734 74.77322689032172 H 0.0 **** 0.06
19683 H 30.331129172424795 62.95562706069671 74.97225434551126 H 0.0 **** 0.06
19684 H 28.72091820669447 63.54671321542757 75.45241566651896 H 0.0 **** 0.06
19685 H 30.156362445590368 64.00157162061323 76.40318887644162 H 0.0 **** 0.06
19686 C 83.69146258065356 93.80672482803573 5.301528767012144 C 0.0 **** -0.24
19687 H 83.52766652292794 94.19939255594522 6.305729282641806 H 0.0 **** 0.06
19688 H 84.12085903983333 92.80754963954877 5.367953812880501 H 0.0 **** 0.06
19689 H 84.37621194059608 94.46241673723694 4.763250806801011 H 0.0 **** 0.06
19690 H 82.73996995033858 93.76004427025589 4.770738356066403 H 0.0 **** 0.06
19691 C 105.42634561812048 3.102494182767259 39.45036870916161 C 0.0 **** -0.24
19692 H 106.20391936398204 3.1884625683756553 40.20914548636941 H 0.0 **** 0.06
19693 H 104.92699720636156 4.064409987165675 39.33006533308952 H 0.0 **** 0.06
19694 H 104.69949140671177 2.3511238480294026 39.75881202408482 H 0.0 **** 0.06
19695 H 105.87560973717441 2.8052577041172526 38.50201170788284 H 0.0 **** 0.06
19696 C 51.98770168257184 9.108072056463284 44.15352974220605 C 0.0 **** -0.24
19697 H 52.13123176179812 8.02771147811477 44.14166230757178 H 0.0 **** 0.06
19698 H 52.949148381282896 9.600318224267552 44.30321510768579 H 0.0 **** 0.06
19699 H 51.31180775262891 9.37693193590675 44.96436720906013 H 0.0 **** 0.06
19700 H 51.560066290728685 9.428056503690348 43.20303794329021 H 0.0 **** 0.06
19701 C 106.24351843549039 28.501188308427217 6.539448493869628 C 0.0 **** -0.24
19702 H 105.63456556208065 28.630373454236576 5.645128491109091 H 0.0 **** 0.06
19703 H 107.13104243608637 29.131526189366753 6.467572853727091 H 0.0 **** 0.06
19704 H 106.54524123906187 27.45709082555325 6.62557355381071 H 0.0 **** 0.06
19705 H 105.66487997214267 28.786039789769234 7.418041607737791 H 0.0 **** 0.06
19706 C 66.65180306463907 17.69214207454786 64.66473109070866 C 0.0 **** -0.24
19707 H 67.33401238387583 17.078734313221844 64.07552645363172 H 0.0 **** 0.06
19708 H 65.79412393771275 17.971983655200802 64.05241503920817 H 0.0 **** 0.06
19709 H 67.16975804487467 18.59163195249357 64.99858935144604 H 0.0 **** 0.06
19710 H 66.31133616804712 17.125885457590698 65.53104592701449 H 0.0 **** 0.06
19711 C 21.743811188535375 68.45437285536951 69.88351607886639 C 0.0 **** -0.24
19712 H 21.22484574592943 68.30393260013436 70.83017879991067 H 0.0 **** 0.06
19713 H 22.27958808187904 69.40357765652772 69.91155367702075 H 0.0 **** 0.06
19714 H 21.018680944609827 68.46922347126443 69.07019617306767 H 0.0 **** 0.06
19715 H 22.45188093206204 67.64155660104917 69.72420929786296 H 0.0 **** 0.06
19716 C 44.4866426225547 34.95020706036446 51.78416531459495 C 0.0 **** -0.24
19717 H 44.192789178841046 35.86012826306387 51.259202127123295 H 0.0 **** 0.06
19718 H 45.419384586324995 35.12532847653993 52.32057340549955 H 0.0 **** 0.06
19719 H 44.62725222759357 34.14451655712527 51.0628113705999 H 0.0 **** 0.06
19720 H 43.70577682306825 34.6714250915152 52.49146575134762 H 0.0 **** 0.06
19721 C 86.65009059507153 73.02436849609519 68.68914138069334 C 0.0 **** -0.24
19722 H 86.42093375058514 72.19225045412222 68.02315682458146 H 0.0 **** 0.06
19723 H 85.87765202260917 73.09975045054915 69.45595819294704 H 0.0 **** 0.06
19724 H 86.68374289435448 73.95053273679402 68.11546985003213 H 0.0 **** 0.06
19725 H 87.61713096155808 72.85516639874427 69.1623466949905 H 0.0 **** 0.06
19726 C 23.718643733837443 52.49429840441249 77.05148146660437 C 0.0 **** -0.24
19727 H 23.090736427930032 52.11038879595216 76.247428895318 H 0.0 **** 0.06
19728 H 24.732161473375587 52.64767961510802 76.68023528879601 H 0.0 **** 0.06
19729 H 23.737547373040393 51.77597772804424 77.87181177811755 H 0.0 **** 0.06
19730 H 23.31493715715136 53.44217901887794 77.4076374116546 H 0.0 **** 0.06
19731 C 88.13585140127331 24.282580358328488 8.267664408996694 C 0.0 **** -0.24
19732 H 87.49865500648966 23.651712028206617 8.88651056138012 H 0.0 **** 0.06
19733 H 88.42039978581978 25.173214365406835 8.827883997017452 H 0.0 **** 0.06
19734 H 87.59276293565603 24.576800929779466 7.368777349422757 H 0.0 **** 0.06
19735 H 89.03168307674949 23.728703921251906 7.985759745360269 H 0.0 **** 0.06
19736 C 63.971401780838676 0.3000458301353883 36.16301798809368 C 0.0 **** -0.24
19737 H 64.19659513548834 0.09166604656120692 35.11734380293488 H 0.0 **** 0.06
19738 H 64.65356287487919 -0.2636091737128621 36.80037584652673 H 0.0 **** 0.06
19739 H 62.94470891702093 0.005093103139274913 36.37917613961625 H 0.0 **** 0.06
19740 H 64.0917459594811 1.3656916949999198 36.355610391774064 H 0.0 **** 0.06
19741 C 5.539655984610292 68.9887116082963 90.77600537247969 C 0.0 **** -0.24
19742 H 6.438240113736541 68.81703466220289 91.36725254796914 H 0.0 **** 0.06
19743 H 5.460128336053998 70.04862758879021 90.53557835795567 H 0.0 **** 0.06
19744 H 4.664348505932679 68.67914459507328 91.34805156061489 H 0.0 **** 0.06
19745 H 5.594691657331239 68.40903689143678 89.85501461978077 H 0.0 **** 0.06
19746 C 27.125523997838055 61.5152811507495 9.39044651578439 C 0.0 **** -0.24
19747 H 26.94176829729475 62.57160344088993 9.195857875344757 H 0.0 **** 0.06
19748 H 27.912777375539083 61.15472416066831 8.728638033150219 H 0.0 **** 0.06
19749 H 26.21149704762906 60.94863251380423 9.21069446968022 H 0.0 **** 0.06
19750 H 27.434315767740912 61.38596944843664 10.42798969814794 H 0.0 **** 0.06
19751 C 11.926747203222362 4.757096307406584 38.952993103021356 C 0.0 **** -0.24
19752 H 12.134090813590035 3.6884590346192425 39.00826253813386 H 0.0 **** 0.06
19753 H 11.32998185971394 4.965144248983137 38.065360944253825 H 0.0 **** 0.06
19754 H 12.866264722171593 5.306909641472316 38.89724513241947 H 0.0 **** 0.06
19755 H 11.376696222502403 5.06576510654584 39.84235199011465 H 0.0 **** 0.06
19756 C 63.696837278298744 11.892906992357894 16.560108969461908 C 0.0 **** -0.24
19757 H 64.42072099999541 11.082725204971496 16.64321432167111 H 0.0 **** 0.06
19758 H 64.21898360799821 12.825291474315463 16.343389948061827 H 0.0 **** 0.06
19759 H 63.15195452711953 11.9904139399585 17.499457638027252 H 0.0 **** 0.06
19760 H 62.996274649485116 11.67277048377241 15.755588892517494 H 0.0 **** 0.06
19761 C 14.192144582678424 58.33867457288559 99.34480451238537 C 0.0 **** -0.24
19762 H 15.031473987549035 58.44567603830826 98.65811061060785 H 0.0 **** 0.06
19763 H 14.38645583885453 57.51288356336255 100.02989800584814 H 0.0 **** 0.06
19764 H 13.283146331613295 58.13554907413352 98.77896805151323 H 0.0 **** 0.06
19765 H 14.068342634338677 59.26070075740438 99.913373355006 H 0.0 **** 0.06
19766 C 94.78912881891752 79.79457722374245 78.61533875307089 C 0.0 **** -0.24
19767 H 94.06294703906897 79.31958940388346 77.9555817471479 H 0.0 **** 0.06
19768 H 95.79556720347301 79.62839410620889 78.22871006174955 H 0.0 **** 0.06
19769 H 94.70792419234529 79.36518214604305 79.61402308472498 H 0.0 **** 0.06
19770 H 94.59059036624737 80.8659166453107 78.66266839286533 H 0.0 **** 0.06
19771 C 65.91890071640711 68.37821467735102 61.756036560532664 C 0.0 **** -0.24
19772 H 66.62221695659639 68.26090763588132 60.931096520181995 H 0.0 **** 0.06
19773 H 66.20252750755895 69.24432152364909 62.35433957915291 H 0.0 **** 0.06
19774 H 65.9386171286169 67.48358749394066 62.37873166342621 H 0.0 **** 0.06
19775 H 64.91429531273309 68.52270291261584 61.35798146263471 H 0.0 **** 0.06
19776 C 29.259844931148763 33.315822649817534 15.360261726967678 C 0.0 **** -0.24
19777 H 28.931128079431687 34.06078416006778 16.0850901898134 H 0.0 **** 0.06
19778 H 30.325536086901465 33.12604463666358 15.492626471639937 H 0.0 **** 0.06
19779 H 29.079268417430143 33.68620383547429 14.351222282603146 H 0.0 **** 0.06
19780 H 28.70415385932415 32.391369281263195 15.511592578695797 H 0.0 **** 0.06
19781 C 8.172056762609586 81.263376297278 41.63319877517091 C 0.0 **** -0.24
19782 H 7.57898566442482 82.17803288343606 41.652165488223716 H 0.0 **** 0.06
19783 H 8.750748115405756 81.22539160416 40.71052214269298 H 0.0 **** 0.06
19784 H 7.507333288925537 80.40049771857628 41.68139627056473 H 0.0 **** 0.06
19785 H 8.847593805629145 81.2498170929409 42.4876029458286 H 0.0 **** 0.06
19786 C 20.896263789851957 81.17754905749118 96.7709411807376 C 0.0 **** -0.24
19787 H 20.034352674154775 81.55520213624565 96.2199147422492 H 0.0 **** 0.06
19788 H 21.627920160870815 80.77613398762105 96.07014693199453 H 0.0 **** 0.06
19789 H 20.573933625421887 80.3909424594104 97.452886203075 H 0.0 **** 0.06
19790 H 21.34582917904548 81.99084401702493 97.34138225256166 H 0.0 **** 0.06
19791 C 51.857344861218166 105.26120097661283 97.9597336191569 C 0.0 **** -0.24
19792 H 51.650701938885675 105.17107209094658 99.02619093022828 H 0.0 **** 0.06
19793 H 52.5388302643708 106.09514775039594 97.79077757043635 H 0.0 **** 0.06
19794 H 50.925160901370106 105.43862912965542 97.42389689197314 H 0.0 **** 0.06
19795 H 52.313553648015244 104.3392523297652 97.60012423114873 H 0.0 **** 0.06
19796 C 9.173061116240945 2.985535438848146 35.21914238892384 C 0.0 **** -0.24
19797 H 9.436675991361824 2.792108514835151 36.2586609806137 H 0.0 **** 0.06
19798 H 9.813363981874375 2.392864634832512 34.56603424204798 H 0.0 **** 0.06
19799 H 9.312377602309141 4.044386245002463 35.000797246966016 H 0.0 **** 0.06
19800 H 8.130981168865048 2.714070876298007 35.05099045631411 H 0.0 **** 0.06
19801 C 16.342719884521948 15.654467251432546 39.63488259116283 C 0.0 **** -0.24
19802 H 15.366670960129927 16.127028744050286 39.515614249870715 H 0.0 **** 0.06
19803 H 17.1095650294746 16.423618035231854 39.727722831008386 H 0.0 **** 0.06
19804 H 16.553241548453716 15.033567945357241 38.76475769492511 H 0.0 **** 0.06
19805 H 16.33771670879904 15.034289515505034 40.53131008802233 H 0.0 **** 0.06
19806 C 39.12286013357823 31.198390999624166 76.14842854080965 C 0.0 **** -0.24
19807 H 39.97167792130318 30.68664155487886 75.69457769729749 H 0.0 **** 0.06
19808 H 39.16560574734419 32.25936359716633 75.90081250876392 H 0.0 **** 0.06
19809 H 39.16121362018197 31.07567460376532 77.2303575391226 H 0.0 **** 0.06
19810 H 38.19532009841353 30.773457298985136 75.76599750551037 H 0.0 **** 0.06
19811 C 58.77938505383108 3.4194799193430097 35.38334170962216 C 0.0 **** -0.24
19812 H 57.74654940021853 3.3270616896539185 35.04672157683726 H 0.0 **** 0.06
19813 H 58.88858163357364 2.939992963648253 36.35641318750021 H 0.0 **** 0.06
19814 H 59.04183148784301 4.47339200577221 35.46572988882838 H 0.0 **** 0.06
19815 H 59.439661445666246 2.9358848415432073 34.66370320575527 H 0.0 **** 0.06
19816 C 8.325122030618802 4.331961306307562 44.67862626501029 C 0.0 **** -0.24
19817 H 8.110496657559523 5.384312200243841 44.862770830266086 H 0.0 **** 0.06
19818 H 9.362657316150484 4.223406928836596 44.36048753912155 H 0.0 **** 0.06
19819 H 7.664438011261538 3.9592464530882694 43.89612198068007 H 0.0 **** 0.06
19820 H 8.1635632382009 3.762337570051301 45.593272764552964 H 0.0 **** 0.06
19821 C 41.933938218585354 57.526571524860685 5.353701826947059 C 0.0 **** -0.24
19822 H 41.219705289472415 57.3798697635948 4.544231279136653 H 0.0 **** 0.06
19823 H 42.89811659373903 57.10427274353401 5.068851771477483 H 0.0 **** 0.06
19824 H 41.57090557168988 57.02858031677323 6.2536422882543405 H 0.0 **** 0.06
19825 H 42.047883342129616 58.59282408282081 5.54892911405382 H 0.0 **** 0.06
19826 C 55.33626087484103 97.81073617799836 104.60435018451844 C 0.0 **** -0.24
19827 H 56.40138339461428 97.86943579852345 104.37895029788368 H 0.0 **** 0.06
19828 H 54.912044348667095 98.81474733622827 104.61833748374511 H 0.0 **** 0.06
19829 H 55.19661606056526 97.34298319844595 105.57846985981556 H 0.0 **** 0.06
19830 H 54.83548617680636 97.21527793097573 103.8404130640967 H 0.0 **** 0.06
19831 C 24.765658255092376 33.807725472382174 100.21392828765657 C 0.0 **** -0.24
19832 H 25.818606698993733 33.57895672194371 100.04920383994941 H 0.0 **** 0.06
19833 H 24.2202641618847 33.70044544955422 99.27689470442708 H 0.0 **** 0.06
19834 H 24.669365351138254 34.831471529831276 100.5768655239442 H 0.0 **** 0.06
19835 H 24.35708980113094 33.12049441232652 100.95398635325087 H 0.0 **** 0.06
19836 C 41.66427762724376 82.77004032382573 5.399016658312291 C 0.0 **** -0.24
19837 H 42.40997388220703 82.49849355453952 4.651819124327105 H 0.0 **** 0.06
19838 H 42.158927130994414 83.23141034538529 6.2542723629797194 H 0.0 **** 0.06
19839 H 41.13474190189598 81.87465180896683 5.725225257962364 H 0.0 **** 0.06
19840 H 40.95459363820564 83.47403466770174 4.965264108526711 H 0.0 **** 0.06
19841 C 39.78390813243573 32.46020471461654 17.870414468363435 C 0.0 **** -0.24
19842 H 38.90901214910485 32.79029210756488 18.431369086153524 H 0.0 **** 0.06
19843 H 39.52247096421098 31.589257543802375 17.26926444702974 H 0.0 **** 0.06
19844 H 40.581992720238304 32.19824364757682 18.56419400224067 H 0.0 **** 0.06
19845 H 40.11969046158649 33.2652240755767 17.216539270045843 H 0.0 **** 0.06
19846 C 82.42268815732272 16.12071428306689 76.0787812510523 C 0.0 **** -0.24
19847 H 83.22368334998627 15.750114694746344 76.71819374635321 H 0.0 **** 0.06
19848 H 81.46053610886283 15.91705223867973 76.5481807495393 H 0.0 **** 0.06
19849 H 82.46926693680959 15.61999892447858 75.112011770865 H 0.0 **** 0.06
19850 H 82.53935465991717 17.195439593400806 75.93749726403945 H 0.0 **** 0.06
19851 C 33.3181625680404 26.823140396271555 4.253453524386742 C 0.0 **** -0.24
19852 H 34.30221075131799 26.476903990599794 4.567888232184714 H 0.0 **** 0.06
19853 H 33.15724631625311 27.83881026711444 4.616247441804461 H 0.0 **** 0.06
19854 H 32.55277139525443 26.164500148575712 4.66474188503409 H 0.0 **** 0.06
19855 H 33.260421809336094 26.8123471787965 3.164936538523989 H 0.0 **** 0.06
19856 C 106.6395762807669 57.14957522663224 75.6804932730796 C 0.0 **** -0.24
19857 H 107.07655548437552 58.147876339912685 75.70681392730482 H 0.0 **** 0.06
19858 H 105.83571010820941 57.12339480202676 74.94462543006159 H 0.0 **** 0.06
19859 H 106.24109020660916 56.90231814566042 76.66447167408286 H 0.0 **** 0.06
19860 H 107.40687512674091 56.424399814972475 75.40715489747612 H 0.0 **** 0.06
19861 C 17.69287505012194 2.668601503935207 51.27112121475433 C 0.0 **** -0.24
19862 H 16.71128852163172 2.512374772943616 50.82332458853655 H 0.0 **** 0.06
19863 H 17.60553984506557 3.3733538860580268 52.09844786123663 H 0.0 **** 0.06
19864 H 18.373476829843508 3.069784196158082 50.52110034339098 H 0.0 **** 0.06
19865 H 18.078230062220452 1.7184522546774872 51.64173509826741 H 0.0 **** 0.06
19866 C 12.394041168007428 95.22871915587086 42.24036648951045 C 0.0 **** -0.24
19867 H 12.173246429970543 95.94315414367401 41.44729143590155 H 0.0 **** 0.06
19868 H 11.988438298783045 94.25285546854252 41.97252678997717 H 0.0 **** 0.06
19869 H 11.939800590914105 95.56902136400902 43.171527948734536 H 0.0 **** 0.06
19870 H 13.473672069494715 95.15188627772869 42.369213425444286 H 0.0 **** 0.06
19871 C 82.77940913383645 87.25053173970139 20.009285345299787 C 0.0 **** -0.24
19872 H 83.05197902462106 87.63629705309074 20.990944361069896 H 0.0 **** 0.06
19873 H 81.80460486162445 86.76426359589829 20.067669614156372 H 0.0 **** 0.06
19874 H 83.52767831696382 86.52761278329251 19.682181104437234 H 0.0 **** 0.06
19875 H 82.73213982162287 88.0735840250934 19.295763596995243 H 0.0 **** 0.06
19876 C 69.67772166580508 80.68157780755013 27.914744475198773 C 0.0 **** -0.24
19877 H 70.53743391413751 80.30091774981418 28.467032009396206 H 0.0 **** 0.06
19878 H 69.85838361587918 80.57771797248597 26.845039336879637 H 0.0 **** 0.06
19879 H 69.52680698826858 81.73298768579713 28.158019430551207 H 0.0 **** 0.06
19880 H 68.7890186199076 80.11318744323779 28.19137248577394 H 0.0 **** 0.06
19881 C 11.320751366182577 103.26950424331943 13.545564104141466 C 0.0 **** -0.24
19882 H 11.537127316831288 102.7470651696013 14.477359449135562 H 0.0 **** 0.06
19883 H 11.309062830243732 102.55547507756795 12.721635424293094 H 0.0 **** 0.06
19884 H 12.088602747967144 104.02149771986963 13.364368724343635 H 0.0 **** 0.06
19885 H 10.347177130903958 103.75474789483482 13.619473136764245 H 0.0 **** 0.06
19886 C 96.52709403695366 56.509271821020654 61.41748369388036 C 0.0 **** -0.24
19887 H 96.1492505417057 55.83984203790797 62.19057281378686 H 0.0 **** 0.06
19888 H 96.66343048906705 55.952011363087195 60.490237287348236 H 0.0 **** 0.06
19889 H 97.48292511949083 56.92631607820258 61.7350773814634 H 0.0 **** 0.06
19890 H 95.81326533019427 57.31701515726353 61.25550840684389 H 0.0 **** 0.06
19891 C 57.88577709305337 56.67396825365756 69.61047281302552 C 0.0 **** -0.24
19892 H 56.973123907502426 57.23986417125394 69.79471894028688 H 0.0 **** 0.06
19893 H 58.20427770762803 56.18854635036331 70.53339408621218 H 0.0 **** 0.06
19894 H 58.6688670957221 57.34923962970487 69.26530425179476 H 0.0 **** 0.06
19895 H 57.69650149652714 55.91736967822692 68.84887117125345 H 0.0 **** 0.06
19896 C 18.295660089732394 80.9680005875748 1.2954168643158823 C 0.0 **** -0.24
19897 H 19.18236679844341 81.50479044239471 1.6338065929831487 H 0.0 **** 0.06
19898 H 17.810162800144724 81.53514515800615 0.5009987490916501 H 0.0 **** 0.06
19899 H 17.60491012387024 80.84463624990768 2.1295382179519606 H 0.0 **** 0.06
19900 H 18.58734191798527 79.98800237820973 0.9176207120282243 H 0.0 **** 0.06
19901 C 4.37184237814688 41.694551660942594 71.8043933894877 C 0.0 **** -0.24
19902 H 4.86130786876403 42.04331479031799 72.71313068392857 H 0.0 **** 0.06
19903 H 3.9818365836895993 40.68919572004731 71.9645796504027 H 0.0 **** 0.06
19904 H 5.091406306852335 41.679710582984 70.98600400409782 H 0.0 **** 0.06
19905 H 3.5505914016617908 42.366980011459646 71.55363510282825 H 0.0 **** 0.06
19906 C 10.776162468814078 62.0492710149837 74.52329394409338 C 0.0 **** -0.24
19907 H 10.450595100059473 62.6093667734105 75.400229155695 H 0.0 **** 0.06
19908 H 10.144456234775134 61.16939075640843 74.3999177375234 H 0.0 **** 0.06
19909 H 11.812212541354029 61.7381533125679 74.65525873850751 H 0.0 **** 0.06
19910 H 10.695661585763474 62.68144719304436 73.63840545199852 H 0.0 **** 0.06
19911 C 1.1954547497187775 65.04292457187637 75.37923440504329 C 0.0 **** -0.24
19912 H 0.12295162282761396 64.89798729738601 75.51042493044855 H 0.0 **** 0.06
19913 H 1.6297454393706943 64.14844097989965 74.93177776380517 H 0.0 **** 0.06
19914 H 1.6576950953825644 65.22626499721405 76.34878524022095 H 0.0 **** 0.06
19915 H 1.369368732337989 65.89774104739679 74.72635816427831 H 0.0 **** 0.06
19916 C 94.70930383192297 33.005023406139 10.317447114651287 C 0.0 **** -0.24
19917 H 94.2143170501837 33.13417677805613 9.354993377881044 H 0.0 **** 0.06
19918 H 94.21243219691797 33.62092929462126 11.066194177527422 H 0.0 **** 0.06
19919 H 95.75350718569479 33.30706805885473 10.231487057372476 H 0.0 **** 0.06
19920 H 94.65833364915528 31.95706436668071 10.61421914097059 H 0.0 **** 0.06
19921 C 67.7008136311531 28.37881170440742 60.52281952401242 C 0.0 **** -0.24
19922 H 66.99963569056392 28.873302635617094 59.85150077427596 H 0.0 **** 0.06
19923 H 67.15680860918648 27.700796885874293 61.18082193486424 H 0.0 **** 0.06
19924 H 68.21989561575334 29.127553577128246 61.120761147570406 H 0.0 **** 0.06
19925 H 68.42691460910852 27.813593719010086 59.938194239339126 H 0.0 **** 0.06
19926 C 38.178016842522695 15.103454258021841 41.759838817684624 C 0.0 **** -0.24
19927 H 38.746030264156005 15.766941732493919 42.41161317370967 H 0.0 **** 0.06
19928 H 37.571046366921536 14.43197180243125 42.365843594127455 H 0.0 **** 0.06
19929 H 38.865886384666155 14.519449560855904 41.14749106984209 H 0.0 **** 0.06
19930 H 37.5312085452706 15.696406116905905 41.11359133934434 H 0.0 **** 0.06
19931 C 93.06587849869146 97.4569769947034 81.63531498036633 C 0.0 **** -0.24
19932 H 92.82510360687031 96.5205927379885 81.13278473580667 H 0.0 **** 0.06
19933 H 93.39041983449656 98.19209889948777 80.89851009627418 H 0.0 **** 0.06
19934 H 93.86594016717706 97.28705643148376 82.35654801084897 H 0.0 **** 0.06
19935 H 92.18236343747058 97.82882090376488 82.15409908441028 H 0.0 **** 0.06
19936 C 73.41243256701105 104.4681700394099 34.07164096569927 C 0.0 **** -0.24
19937 H 73.90684882745549 103.52294354238322 33.849289660518984 H 0.0 **** 0.06
19938 H 72.59515991730754 104.293847648586 34.77322199420155 H 0.0 **** 0.06
19939 H 73.01611983558027 104.8962992611221 33.15035417924336 H 0.0 **** 0.06
19940 H 74.13020774283984 105.1588993127175 34.51445987764284 H 0.0 **** 0.06
19941 C 87.31392080232752 81.74934716187971 65.93050715690029 C 0.0 **** -0.24
19942 H 88.13352442520443 82.17227259482814 65.34946611495172 H 0.0 **** 0.06
19943 H 87.13017040888897 82.37306911313507 66.80633962338851 H 0.0 **** 0.06
19944 H 87.57823925082477 80.74153158008599 66.2505684217059 H 0.0 **** 0.06
19945 H 86.41485576103199 81.71133745649013 65.31533886664874 H 0.0 **** 0.06
19946 C 40.380794075123866 49.67903315976474 7.978738659405792 C 0.0 **** -0.24
19947 H 39.54515000483557 49.05721388522171 8.299636582718591 H 0.0 **** 0.06
19948 H 40.00100903282658 50.537940047260406 7.424476955519879 H 0.0 **** 0.06
19949 H 41.04288433509381 49.096071156309165 7.339306528180998 H 0.0 **** 0.06
19950 H 40.9317712296107 50.02588100418871 8.85310784290445 H 0.0 **** 0.06
19951 C 12.880052843848375 26.14805025754046 67.30426343689345 C 0.0 **** -0.24
19952 H 12.423261678455447 25.394799750475528 67.94611950211834 H 0.0 **** 0.06
19953 H 13.160090821449785 27.01417235935702 67.90377568744839 H 0.0 **** 0.06
19954 H 12.168131825581781 26.451277953715987 66.53684365783113 H 0.0 **** 0.06
19955 H 13.768630127179733 25.731023864394075 66.83067702378469 H 0.0 **** 0.06
19956 C 88.52168201465298 11.937390317205484 89.61161439046776 C 0.0 **** -0.24
19957 H 87.89728790557024 12.079595083105957 90.49445954845514 H 0.0 **** 0.06
19958 H 89.35626303854042 11.280784698293871 89.85950010839659 H 0.0 **** 0.06
19959 H 88.9046086167773 12.902540530198948 89.27814018069674 H 0.0 **** 0.06
19960 H 87.92842356329027 11.48785257476328 88.8162315458688 H 0.0 **** 0.06
19961 C 81.95613414936656 72.91290111677525 6.45627908162262 C 0.0 **** -0.24
19962 H 81.52857719559529 73.63937015679748 5.76556751276113 H 0.0 **** 0.06
19963 H 81.36531847897004 71.99778587181014 6.433006986288525 H 0.0 **** 0.06
19964 H 81.95013151978782 73.32468817253788 7.465088310115272 H 0.0 **** 0.06
19965 H 82.98157139260132 72.69148011598503 6.160069837271568 H 0.0 **** 0.06
19966 C 94.45812645049355 87.15558021790747 57.02756555575269 C 0.0 **** -0.24
19967 H 94.69211369571289 86.3540910056636 56.32542467767274 H 0.0 **** 0.06
19968 H 95.33608945948205 87.78696993410009 57.162738304045234 H 0.0 **** 0.06
19969 H 94.1668940725059 86.72513049080149 57.985853850746 H 0.0 **** 0.06
19970 H 93.63662357764939 87.75372682994342 56.633486426108675 H 0.0 **** 0.06
19971 C 57.634719408433426 50.26044743663908 88.56615959642784 C 0.0 **** -0.24
19972 H 58.26929050635425 49.68766916751639 87.88998116036475 H 0.0 **** 0.06
19973 H 57.22610819880995 51.121746740824875 88.03818036355437 H 0.0 **** 0.06
19974 H 58.22511697230496 50.601050217157166 89.4172331577214 H 0.0 **** 0.06
19975 H 56.81897266326402 49.63005463813968 88.91911404524927 H 0.0 **** 0.06
19976 C 29.911998881466786 87.80301182448538 41.55850482302347 C 0.0 **** -0.24
19977 H 30.27047232985933 88.09667910652061 42.54472791555639 H 0.0 **** 0.06
19978 H 28.894676537264672 88.16991242556152 41.418148285879596 H 0.0 **** 0.06
19979 H 29.920400223711397 86.71623789306 41.477378196537245 H 0.0 **** 0.06
19980 H 30.561070919092003 88.2290871835886 40.79406650367983 H 0.0 **** 0.06
19981 C 9.647164844235192 96.31648234145916 62.8058611301723 C 0.0 **** -0.24
19982 H 9.0915083601314 96.96362326951049 63.48463812339412 H 0.0 **** 0.06
19983 H 10.664694701285498 96.69211124876699 62.69880687715974 H 0.0 **** 0.06
19984 H 9.15823644511596 96.30668320544174 61.83124492511686 H 0.0 **** 0.06
19985 H 9.67292895689144 95.30403839178695 63.20899159538567 H 0.0 **** 0.06
19986 C 53.41940300460314 63.18344534646789 92.8889873350916 C 0.0 **** -0.24
19987 H 52.86438864560981 63.47000462188467 91.99592320935841 H 0.0 **** 0.06
19988 H 53.63427616207832 62.11500442039862 92.85519004661279 H 0.0 **** 0.06
19989 H 52.82461802812642 63.40797336561609 93.77373456171648 H 0.0 **** 0.06
19990 H 54.355242088793574 63.741394533611384 92.92890785177224 H 0.0 **** 0.06
19991 C 30.283262104796712 38.516066615676436 46.36543380174458 C 0.0 **** -0.24
19992 H 31.049022760494452 38.78006692482322 45.63583516145715 H 0.0 **** 0.06
19993 H 30.33552460101047 39.20396983534107 47.21009737904613 H 0.0 **** 0.06
19994 H 30.449622994359714 37.49778238615502 46.715069227172 H 0.0 **** 0.06
19995 H 29.29944756597868 38.58571466068341 45.900708250093416 H 0.0 **** 0.06
19996 C 43.08539278899906 2.24621704989704 3.100392552791476 C 0.0 **** -0.24
19997 H 42.82250624508339 3.244334045683929 3.4505351349544497 H 0.0 **** 0.06
19998 H 43.97109594346091 1.8971377017351108 3.6320139190395224 H 0.0 **** 0.06
19999 H 43.2929129212942 2.2803979800411662 2.030724014988337 H 0.0 **** 0.06
20000 H 42.25636351978886 1.5650473015898303 3.2886022435260855 H 0.0 **** 0.06
20001 C 76.39938050656761 43.394052077000254 9.817146210232863 C 0.0 **** -0.24
20002 H 76.57202418585155 43.780378345276176 8.81237663199893 H 0.0 **** 0.06
20003 H 75.55435993052902 42.70663089418764 9.801146406584508 H 0.0 **** 0.06
20004 H 76.18110484750036 44.22258703687638 10.49135262540824 H 0.0 **** 0.06
20005 H 77.2900737111886 42.86942872206825 10.162677180206842 H 0.0 **** 0.06
20006 C 97.71414025230641 78.34466506808752 43.366040212155085 C 0.0 **** -0.24
20007 H 96.84633239486931 78.06719615576344 43.965127245195205 H 0.0 **** 0.06
20008 H 97.4918013666701 78.18889897571648 42.3100084472795 H 0.0 **** 0.06
20009 H 98.56597529039196 77.72726799496417 43.65406921365808 H 0.0 **** 0.06
20010 H 97.95234737711942 79.39493331131945 43.5363185794445 H 0.0 **** 0.06
20011 C 37.339965027789646 35.7961213850451 74.2485488559181 C 0.0 **** -0.24
20012 H 37.441219096707016 36.46017591402594 75.10654353531226 H 0.0 **** 0.06
20013 H 36.37324909305141 35.96140140329683 73.77363887301851 H 0.0 **** 0.06
20014 H 37.410847747283896 34.76049687033168 74.58051450978644 H 0.0 **** 0.06
20015 H 38.13566694229428 36.00325652548281 73.53365714473108 H 0.0 **** 0.06
20016 C 48.671819218144286 39.12961432507228 59.1028562433026 C 0.0 **** -0.24
20017 H 48.13578112140066 40.064034982533855 59.27461475825862 H 0.0 **** 0.06
20018 H 48.96367130310705 38.69736380038407 60.06032508466109 H 0.0 **** 0.06
20019 H 49.56157387968389 39.32614039832285 58.5051516122204 H 0.0 **** 0.06
20020 H 48.023723661187304 38.432729027236235 58.57075402516443 H 0.0 **** 0.06
20021 C 45.30862776671131 63.990756330772186 47.84889960756859 C 0.0 **** -0.24
20022 H 45.605548721750864 64.95675373536042 47.44111088147041 H 0.0 **** 0.06
20023 H 46.19840117847599 63.41671744581127 48.107654983791974 H 0.0 **** 0.06
20024 H 44.727254531692495 63.44623977965303 47.1053227372538 H 0.0 **** 0.06
20025 H 44.70202343931169 64.14463721149681 48.7422867853601 H 0.0 **** 0.06
20026 C 52.150339785770086 89.72168696814313 96.1214049718216 C 0.0 **** -0.24
20027 H 52.33237513829323 89.52286131019898 97.17772083956396 H 0.0 **** 0.06
20028 H 51.350143727263514 90.45502624566737 96.0221906989215 H 0.0 **** 0.06
20029 H 51.86071528810629 88.79615926989683 95.62349147413545 H 0.0 **** 0.06
20030 H 53.059908559618236 90.1106866172685 95.66354403908437 H 0.0 **** 0.06
20031 C 3.5750962425574926 5.514858220931984 39.854141705112085 C 0.0 **** -0.24
20032 H 2.655656441091253 5.470073726660132 39.27039474850369 H 0.0 **** 0.06
20033 H 3.5117563554700837 6.335767013029056 40.568652402058206 H 0.0 **** 0.06
20034 H 4.421676205929998 5.676750824276411 39.18707810420625 H 0.0 **** 0.06
20035 H 3.7090891055361226 4.575897278169862 40.39093025881269 H 0.0 **** 0.06
20036 C 47.77697725959467 2.7604833629944636 50.943835993330055 C 0.0 **** -0.24
20037 H 48.14121248086772 2.2408216096142013 51.82897326210269 H 0.0 **** 0.06
20038 H 48.57908552537279 2.8322673154594185 50.208719581214666 H 0.0 **** 0.06
20039 H 47.44652133238418 3.7625734198566505 51.22004094943267 H 0.0 **** 0.06
20040 H 46.94063828940267 2.2074615688814134 50.516994452210014 H 0.0 **** 0.06
20041 C 79.66562939575344 64.91493393542592 5.668992136859108 C 0.0 **** -0.24
20042 H 79.61164135871843 65.67260252424151 6.451467287389585 H 0.0 **** 0.06
20043 H 80.62661531309317 64.40394053335046 5.724889363535299 H 0.0 **** 0.06
20044 H 79.5638461967124 65.39192675778642 4.69436722437754 H 0.0 **** 0.06
20045 H 78.86073952320204 64.19363538524922 5.8057742379897 H 0.0 **** 0.06
20046 C 18.110838107325304 51.53378668564778 40.35472375609615 C 0.0 **** -0.24
20047 H 17.19508012023625 52.0607188956165 40.62697835735898 H 0.0 **** 0.06
20048 H 18.85645662032127 51.67534645715648 41.13695298124145 H 0.0 **** 0.06
20049 H 18.490377017212438 51.9300996747005 39.41340824268923 H 0.0 **** 0.06
20050 H 17.89806161894362 50.471110168466794 40.24258790858099 H 0.0 **** 0.06
20051 C 65.70043132550241 50.795201611666386 52.17436882556592 C 0.0 **** -0.24
20052 H 66.13647237950777 49.7970201929181 52.210142374433595 H 0.0 **** 0.06
20053 H 66.42884389431494 51.495565123155046 51.76406058712013 H 0.0 **** 0.06
20054 H 65.42425779588525 51.10705284023882 53.1815901002316 H 0.0 **** 0.06
20055 H 64.81355257750702 50.78112789371838 51.541868497892 H 0.0 **** 0.06
20056 C 8.448950651290318 69.44843305664412 88.21139665487974 C 0.0 **** -0.24
20057 H 7.830545331262101 70.34604125461081 88.17856159616629 H 0.0 **** 0.06
20058 H 8.125572101433363 68.75662607235779 87.43307014443296 H 0.0 **** 0.06
20059 H 8.345742916502047 68.97205025892563 89.18594437843004 H 0.0 **** 0.06
20060 H 9.491956293057342 69.71868922704155 88.04703567356353 H 0.0 **** 0.06
20061 C 82.03024355530425 28.13793601016684 48.837745482422946 C 0.0 **** -0.24
20062 H 81.43294349807036 29.03592556311409 48.99507031371448 H 0.0 **** 0.06
20063 H 82.95379490672575 28.401463257216335 48.32255232883425 H 0.0 **** 0.06
20064 H 81.4661154071129 27.42867957360778 48.23101283365473 H 0.0 **** 0.06
20065 H 82.26684703192338 27.685239496107755 49.800560812731234 H 0.0 **** 0.06
20066 C 28.461014366130712 13.977851682445902 43.842039269402676 C 0.0 **** -0.24
20067 H 27.851068046963235 14.876918945252793 43.924986313256625 H 0.0 **** 0.06
20068 H 28.340985184428206 13.373342532478247 44.74136980645534 H 0.0 **** 0.06
20069 H 29.50865042686125 14.258241124559099 43.7289013369915 H 0.0 **** 0.06
20070 H 28.14373520599905 13.401815746450058 42.972081053226475 H 0.0 **** 0.06
20071 C 79.88283824611642 28.897084159152186 95.50104165942463 C 0.0 **** -0.24
20072 H 80.76690193276744 29.170789917819633 96.07709310924628 H 0.0 **** 0.06
20073 H 80.18996612405246 28.474253221325483 94.54412097070966 H 0.0 **** 0.06
20074 H 79.27354915216384 29.783851511974483 95.3281453301195 H 0.0 **** 0.06
20075 H 79.30221288694906 28.159569193543 96.05540127855349 H 0.0 **** 0.06
20076 C 71.58616359586023 22.787344682319898 91.96413018737002 C 0.0 **** -0.24
20077 H 70.53563031514892 23.007537566506983 92.15327197778477 H 0.0 **** 0.06
20078 H 71.70851573408669 21.716331590088032 91.80022272948948 H 0.0 **** 0.06
20079 H 72.18185777833804 23.094751251710363 92.82253700369074 H 0.0 **** 0.06
20080 H 71.91731959952466 23.33075240982552 91.07869216609012 H 0.0 **** 0.06
20081 C 35.910335622461446 82.99344683890348 14.601545994578714 C 0.0 **** -0.24
20082 H 35.773671701972404 82.3664982664975 13.720676453799001 H 0.0 **** 0.06
20083 H 36.968263851433875 83.0271679421104 14.862715437314932 H 0.0 **** 0.06
20084 H 35.3436763393494 82.57887347529356 15.435305487193261 H 0.0 **** 0.06
20085 H 35.55686193159784 84.00254373494892 14.3872855018667 H 0.0 **** 0.06
20086 C 56.77061853510196 13.693013303550316 92.33318569874923 C 0.0 **** -0.24
20087 H 57.05271869149709 13.207597963662437 91.39926593497876 H 0.0 **** 0.06
20088 H 57.594380335659366 13.621243116411307 93.04343934900086 H 0.0 **** 0.06
20089 H 55.89012878806602 13.200929618730228 92.74688387446562 H 0.0 **** 0.06
20090 H 56.544814096354116 14.743141192973212 92.14342913084582 H 0.0 **** 0.06
20091 C 74.37097253871522 30.974678052948207 29.769191336556077 C 0.0 **** -0.24
20092 H 73.64484399470331 31.379702925647436 29.064832858004223 H 0.0 **** 0.06
20093 H 75.05236997535846 31.765740581049542 30.08232600210357 H 0.0 **** 0.06
20094 H 74.93585699154205 30.175955356551412 29.28935461502232 H 0.0 **** 0.06
20095 H 73.84900813798785 30.578607939535488 30.640462449392004 H 0.0 **** 0.06
20096 C 59.07258027367225 90.12102936663317 103.93223178649414 C 0.0 **** -0.24
20097 H 58.41616823464142 90.02679065233016 104.79733872208898 H 0.0 **** 0.06
20098 H 60.03865639370812 90.51252723192906 104.25067338763044 H 0.0 **** 0.06
20099 H 58.623884654926854 90.80051717331006 103.20823646327716 H 0.0 **** 0.06
20100 H 59.21042235289136 89.14113031307906 103.47396312682734 H 0.0 **** 0.06
20101 C 85.1530383830776 90.70210598596395 7.203667310157613 C 0.0 **** -0.24
20102 H 85.45686598323327 91.26553855293069 6.320993941962058 H 0.0 **** 0.06
20103 H 85.49253850333083 89.67002856084183 7.110101212412673 H 0.0 **** 0.06
20104 H 84.06687580859193 90.72179928554806 7.290567965802865 H 0.0 **** 0.06
20105 H 85.5975004163449 91.15227671056478 8.091640031743168 H 0.0 **** 0.06
20106 C 77.97881790757128 45.534952125140876 104.36583803306519 C 0.0 **** -0.24
20107 H 77.62194372256317 44.57571878972007 104.7404003335273 H 0.0 **** 0.06
20108 H 78.96285675456016 45.74480143319437 104.78585178763196 H 0.0 **** 0.06
20109 H 77.28365888697948 46.32069400714451 104.65948285454212 H 0.0 **** 0.06
20110 H 78.04737782644065 45.49835031362139 103.27889023107764 H 0.0 **** 0.06
20111 C 61.12573365529806 81.42028575893347 105.9137272423248 C 0.0 **** -0.24
20112 H 61.113667195590324 80.47771574066329 106.46145426453988 H 0.0 **** 0.06
20113 H 60.33534284369546 81.4126817260902 105.16203027535985 H 0.0 **** 0.06
20114 H 62.09201539308651 81.54189119432239 105.42332794689138 H 0.0 **** 0.06
20115 H 60.962125231652976 82.24548680222408 106.6064798730718 H 0.0 **** 0.06
20116 C 64.41541634675912 58.60614421271448 99.2001584461984 C 0.0 **** -0.24
20117 H 64.93085877335315 59.562210591472905 99.1164635884955 H 0.0 **** 0.06
20118 H 63.41161962522695 58.697034613895426 98.78570125545542 H 0.0 **** 0.06
20119 H 64.35167160082229 58.318352167186134 100.24952018108486 H 0.0 **** 0.06
20120 H 64.96913182758328 57.84555033436419 98.64836147811249 H 0.0 **** 0.06
20121 C 52.68754621534649 98.89600326577249 29.395129383777032 C 0.0 **** -0.24
20122 H 53.72498352083591 99.20880512302638 29.274304837570128 H 0.0 **** 0.06
20123 H 52.63516677822384 97.80682785884943 29.40033318147121 H 0.0 **** 0.06
20124 H 52.09159492915618 99.2847009585505 28.569217228690718 H 0.0 **** 0.06
20125 H 52.29938802306122 99.28276018191488 30.337783109689468 H 0.0 **** 0.06
20126 C 63.13278966175915 65.83335288098715 83.46597513416326 C 0.0 **** -0.24
20127 H 62.86055679390765 64.79490575171806 83.65723562905258 H 0.0 **** 0.06
20128 H 62.25614675770649 66.37960858365719 83.11634435590514 H 0.0 **** 0.06
20129 H 63.91230533313143 65.86993356824101 82.7054609365967 H 0.0 **** 0.06
20130 H 63.50027614348019 66.2866696585065 84.38596765488828 H 0.0 **** 0.06
20131 C 65.93756434858287 7.692340994385724 18.022886288230694 C 0.0 **** -0.24
20132 H 65.6436492139436 6.860284558597543 17.382068259390508 H 0.0 **** 0.06
20133 H 65.0676195795342 8.313320569744823 18.23511527660881 H 0.0 **** 0.06
20134 H 66.69678835025915 8.289174571592076 17.51744261800735 H 0.0 **** 0.06
20135 H 66.34401362805846 7.303998007060898 18.957071731718173 H 0.0 **** 0.06
20136 C 45.149193755940615 82.03185222229683 85.0874081192655 C 0.0 **** -0.24
20137 H 46.05503660926152 81.63997888082201 84.62390217993585 H 0.0 **** 0.06
20138 H 44.45019578967975 82.34513359327048 84.31184810275326 H 0.0 **** 0.06
20139 H 45.40393129416111 82.886179858616 85.71491493474669 H 0.0 **** 0.06
20140 H 44.689400332356286 81.25566151357248 85.69973706029943 H 0.0 **** 0.06
20141 C 34.08493133913001 84.80985576052825 19.868963551792206 C 0.0 **** -0.24
20142 H 34.72394524025185 84.48036083724799 20.68735891548829 H 0.0 **** 0.06
20143 H 33.04602681813918 84.57261347236528 20.100946872384952 H 0.0 **** 0.06
20144 H 34.37810971204945 84.299338241973 18.95162064314775 H 0.0 **** 0.06
20145 H 34.19088719868529 85.88584338550015 19.735020879734066 H 0.0 **** 0.06
20146 C 28.04598094760108 43.39313727391021 72.95437945017501 C 0.0 **** -0.24
20147 H 27.52148315096575 42.55973622295943 72.48726870834236 H 0.0 **** 0.06
20148 H 28.262698748465567 44.15372366659383 72.20320802123685 H 0.0 **** 0.06
20149 H 28.978539820564464 43.03660157788636 73.39156355841052 H 0.0 **** 0.06
20150 H 27.419663388981476 43.82334984289481 73.73642050236059 H 0.0 **** 0.06
20151 C 66.60396962717608 60.73423065807516 32.50570701259261 C 0.0 **** -0.24
20152 H 66.66064212899133 61.76982836807724 32.17065133033901 H 0.0 **** 0.06
20153 H 67.1393233459888 60.629061195786946 33.449859824714 H 0.0 **** 0.06
20154 H 67.05613504568974 60.08444415634835 31.75666787686447 H 0.0 **** 0.06
20155 H 65.5600572176098 60.455319634903304 32.64703713214482 H 0.0 **** 0.06
20156 C 36.71556623608949 52.35853746102231 15.232211106676601 C 0.0 **** -0.24
20157 H 37.51944791450378 52.55114033525837 14.52207797509648 H 0.0 **** 0.06
20158 H 35.771416725191855 52.706680725127114 14.814462819451663 H 0.0 **** 0.06
20159 H 36.919192000318404 52.88697991052703 16.16378120764145 H 0.0 **** 0.06
20160 H 36.65404148224845 51.28721020158844 15.428265693152042 H 0.0 **** 0.06
20161 C 67.9364786932664 64.9478618557881 77.1528132970042 C 0.0 **** -0.24
20162 H 67.865120537801 65.99632586917542 76.86136863828997 H 0.0 **** 0.06
20163 H 67.04459705398104 64.6658661026417 77.71285728454689 H 0.0 **** 0.06
20164 H 68.81854873285923 64.80389603690084 77.77611976885922 H 0.0 **** 0.06
20165 H 68.01626456526806 64.32778462563016 76.25942301710361 H 0.0 **** 0.06
20166 C 26.62724256910795 52.44921549862954 45.191922789203716 C 0.0 **** -0.24
20167 H 26.11654993862004 52.344117286524096 46.1498800827178 H 0.0 **** 0.06
20168 H 26.717333456258046 53.50626878289697 44.9425201547499 H 0.0 **** 0.06
20169 H 26.05305099885817 51.93935686668294 44.41739261551919 H 0.0 **** 0.06
20170 H 27.62026695055218 52.004765351478596 45.25905216829693 H 0.0 **** 0.06
20171 C 1.9022083387973368 63.12797293716905 57.576363880421965 C 0.0 **** -0.24
20172 H 0.9200508461169505 63.56709589937745 57.39657937506885 H 0.0 **** 0.06
20173 H 2.010874139483974 62.90494078401784 58.63803903670463 H 0.0 **** 0.06
20174 H 2.676137887580282 63.83203497212115 57.27043836822276 H 0.0 **** 0.06
20175 H 1.9994347736817843 62.207814148310476 56.999660698629846 H 0.0 **** 0.06
20176 C 33.58072342364408 105.9401370397719 5.732709641319133 C 0.0 **** -0.24
20177 H 34.38844512128503 106.44497762557798 6.261045965803817 H 0.0 **** 0.06
20178 H 33.881946135657934 105.75425726845182 4.7010113478995095 H 0.0 **** 0.06
20179 H 32.69106560821513 106.56921361450848 5.743447745954342 H 0.0 **** 0.06
20180 H 33.36188099501606 104.9926343666037 6.224101885645581 H 0.0 **** 0.06
20181 C 66.81532838924338 60.95854131360022 76.68639626967584 C 0.0 **** -0.24
20182 H 67.41126254235239 60.995550196140755 75.77458679073548 H 0.0 **** 0.06
20183 H 67.13622572208443 60.11377836270176 77.29595362421054 H 0.0 **** 0.06
20184 H 65.763315126561 60.841382580559284 76.42727156859115 H 0.0 **** 0.06
20185 H 66.95098653807885 61.88374408963814 77.24560763573034 H 0.0 **** 0.06
20186 C 88.94463449545198 14.336490737876247 48.14479523535482 C 0.0 **** -0.24
20187 H 89.31745587708434 13.669964075830094 47.36818268448923 H 0.0 **** 0.06
20188 H 88.07166802722692 14.874624032220595 47.772893506297294 H 0.0 **** 0.06
20189 H 89.72277707408968 15.048966393720022 48.4165142478285 H 0.0 **** 0.06
20190 H 88.66465711794453 13.752478627001892 49.02186493476245 H 0.0 **** 0.06
20191 C 74.35561597300557 34.02204210569553 26.511291355758875 C 0.0 **** -0.24
20192 H 73.36638881279868 34.316507388569676 26.16070822163815 H 0.0 **** 0.06
20193 H 74.3570091379186 32.95661731172629 26.740410872373502 H 0.0 **** 0.06
20194 H 74.60526611194163 34.587074709779785 27.40990846979581 H 0.0 **** 0.06
20195 H 75.0924129370784 34.22911584015776 25.735799663330482 H 0.0 **** 0.06
20196 C 32.1193330878159 64.55318582452422 46.95298935766385 C 0.0 **** -0.24
20197 H 31.607116532329457 63.68826929239776 47.37240945703368 H 0.0 **** 0.06
20198 H 32.97128091973889 64.81187847644028 47.58257553718994 H 0.0 **** 0.06
20199 H 31.43072947821051 65.39691225344649 46.90792841898323 H 0.0 **** 0.06
20200 H 32.4696895934901 64.31615430470306 45.947788809118975 H 0.0 **** 0.06
20201 C 15.837584146984923 29.826951826469383 97.38141002402367 C 0.0 **** -0.24
20202 H 15.545828665757583 29.190747428391433 98.21596159809224 H 0.0 **** 0.06
20203 H 15.482130527895308 29.38767796649526 96.44839073825995 H 0.0 **** 0.06
20204 H 16.924509158805918 29.91238358382833 97.35214899313473 H 0.0 **** 0.06
20205 H 15.39858035546223 30.816972827548824 97.50756004147456 H 0.0 **** 0.06
20206 C 87.19555884867538 15.437190931027732 27.367681432237646 C 0.0 **** -0.24
20207 H 87.62041263218043 16.41477546011425 27.14316330752399 H 0.0 **** 0.06
20208 H 86.59971166806696 15.09666260615013 26.519750190288676 H 0.0 **** 0.06
20209 H 86.56180086935257 15.510351387294588 28.25150894983591 H 0.0 **** 0.06
20210 H 87.99941188868075 14.726108856117055 27.555636841787305 H 0.0 **** 0.06
20211 C 17.029229728949474 18.53890923419938 88.43106047340159 C 0.0 **** -0.24
20212 H 16.177570959256855 18.9848167961715 88.94463956666073 H 0.0 **** 0.06
20213 H 17.284309305259228 17.590750716172863 88.90520662990902 H 0.0 **** 0.06
20214 H 17.882813391975674 19.215018777855875 88.48919453221171 H 0.0 **** 0.06
20215 H 16.7730056178184 18.365640628237472 87.38540854926295 H 0.0 **** 0.06
20216 C 3.0840639017778244 55.62245214475408 1.3512595567942762 C 0.0 **** -0.24
20217 H 3.7087875645030266 56.284519453191066 1.9507284265111497 H 0.0 **** 0.06
20218 H 2.4232562917082276 56.21988998612166 0.7214118474677829 H 0.0 **** 0.06
20219 H 2.487691084159408 54.99188160478265 2.0097160138779895 H 0.0 **** 0.06
20220 H 3.717080482214044 54.996754998086146 0.7227281272239781 H 0.0 **** 0.06
20221 C 7.414458661365813 42.540517180821865 30.14746117072579 C 0.0 **** -0.24
20222 H 6.539705019223348 43.13522495549201 29.884321595424183 H 0.0 **** 0.06
20223 H 7.467305486246673 42.43273999675873 31.23113825798805 H 0.0 **** 0.06
20224 H 8.313959884969066 43.03989374596857 29.788288129227993 H 0.0 **** 0.06
20225 H 7.335672189130605 41.555983228032886 29.687294617806145 H 0.0 **** 0.06
20226 C 99.4680683323063 64.3124111551399 15.777499383873817 C 0.0 **** -0.24
20227 H 100.43598912910036 64.79660266694822 15.907705473634337 H 0.0 **** 0.06
20228 H 99.38066245882013 63.945181985372386 14.7554120030656 H 0.0 **** 0.06
20229 H 98.67337350894516 65.0312656440305 15.975986284549776 H 0.0 **** 0.06
20230 H 99.38443970845324 63.47766523127348 16.472640486877708 H 0.0 **** 0.06
20231 C 71.17350771490996 104.36593655162524 93.18065786034684 C 0.0 **** -0.24
20232 H 72.1076142669372 104.75220238110984 93.58807453799433 H 0.0 **** 0.06
20233 H 71.07096368000127 104.6849984766356 92.14304234593575 H 0.0 **** 0.06
20234 H 70.3368194270033 104.75205128398956 93.76362344255486 H 0.0 **** 0.06
20235 H 71.17882148469307 103.27745813716608 93.22831460707144 H 0.0 **** 0.06
20236 C 104.80811077399552 99.92228638134728 31.083877826934142 C 0.0 **** -0.24
20237 H 104.46157908835771 100.81209381931033 31.609903721568763 H 0.0 **** 0.06
20238 H 105.635896732982 99.47436697444867 31.633224982356644 H 0.0 **** 0.06
20239 H 105.14260648401293 100.19984737078923 30.08416725095421 H 0.0 **** 0.06
20240 H 103.99144713131024 99.20449116202484 31.007019360159397 H 0.0 **** 0.06
20241 C 93.34668625332132 59.21429143439576 29.511769272978427 C 0.0 **** -0.24
20242 H 93.18432199442675 59.35968643751647 28.44415004712957 H 0.0 **** 0.06
20243 H 92.39057309275816 59.03789582313709 30.00437450208905 H 0.0 **** 0.06
20244 H 93.8152222574873 60.1033835080533 29.932745477211455 H 0.0 **** 0.06
20245 H 93.99870115641416 58.35325907944855 29.664781169590043 H 0.0 **** 0.06
20246 C 60.484203169556395 87.28935790051074 81.14731357098213 C 0.0 **** -0.24
20247 H 60.10313016638651 87.92454349676397 80.34851805920567 H 0.0 **** 0.06
20248 H 59.649644646286816 86.89997699882763 81.73042873380803 H 0.0 **** 0.06
20249 H 61.14003290427246 87.87164033333008 81.79377021090062 H 0.0 **** 0.06
20250 H 61.043775428614 86.45942258009899 80.71580811508102 H 0.0 **** 0.06
20251 C 13.434699269965733 3.2134069838587465 51.375013308391125 C 0.0 **** -0.24
20252 H 12.917538187290177 4.013454101353787 50.845486421758956 H 0.0 **** 0.06
20253 H 12.830551759501645 2.306634705123571 51.343036218100885 H 0.0 **** 0.06
20254 H 13.59327558090456 3.5081790938431396 52.41214909745315 H 0.0 **** 0.06
20255 H 14.397048029702603 3.024850877915938 50.89861096687852 H 0.0 **** 0.06
20256 C 41.81831545274002 22.275280953110013 77.03673374137279 C 0.0 **** -0.24
20257 H 41.77309721815908 22.349846713405782 78.12345541106981 H 0.0 **** 0.06
20258 H 42.44391986850172 23.077603428431445 76.64428436293544 H 0.0 **** 0.06
20259 H 40.81366993657798 22.36241485893484 76.62452539895914 H 0.0 **** 0.06
20260 H 42.24458008426717 21.311632463023358 76.75602605456442 H 0.0 **** 0.06
20261 C 91.70625955696656 10.36248286020492 38.14456368366076 C 0.0 **** -0.24
20262 H 91.31064111764411 10.49840337044941 39.15087593734729 H 0.0 **** 0.06
20263 H 90.98564061141713 9.806711014413537 37.542841325252525 H 0.0 **** 0.06
20264 H 92.64259011739966 9.807151964581365 38.19443714204299 H 0.0 **** 0.06
20265 H 91.88447837535767 11.3363100866342 37.68953923466408 H 0.0 **** 0.06
20266 C 93.78531370656424 73.14136286196765 68.54869661588185 C 0.0 **** -0.24
20267 H 92.93025288204173 73.28477293623169 69.20971119120435 H 0.0 **** 0.06
20268 H 94.155364421243 72.12155746860446 68.65007262270512 H 0.0 **** 0.06
20269 H 94.57440967912463 73.84390217954694 68.81959480797195 H 0.0 **** 0.06
20270 H 93.48072761605908 73.3173803147057 67.51644619470676 H 0.0 **** 0.06
20271 C 53.964819766079074 88.85299953039542 9.699608856125499 C 0.0 **** -0.24
20272 H 54.117302669882235 88.73364812398017 10.77272020047199 H 0.0 **** 0.06
20273 H 53.50009593666829 87.95326914474263 9.29702634582327 H 0.0 **** 0.06
20274 H 54.92723828723035 89.01455032143681 9.213217370602957 H 0.0 **** 0.06
20275 H 53.316862591516326 89.71005072479416 9.517888121514765 H 0.0 **** 0.06
20276 C 81.6899118744299 5.9991264263951365 72.13464174584693 C 0.0 **** -0.24
20277 H 81.44565866069789 4.956826728311668 72.34051167890831 H 0.0 **** 0.06
20278 H 82.71340349521861 6.200804992636506 72.44989139587341 H 0.0 **** 0.06
20279 H 81.00641010686721 6.6464740287378135 72.68395232913282 H 0.0 **** 0.06
20280 H 81.59276533414831 6.190460744885982 71.06627364176938 H 0.0 **** 0.06
20281 C 14.311678319148761 85.9437575866773 42.10834318908121 C 0.0 **** -0.24
20282 H 13.483793289493097 85.34227160386732 42.485329597935504 H 0.0 **** 0.06
20283 H 15.141162846178098 85.29085247637028 41.83672941240863 H 0.0 **** 0.06
20284 H 14.635384730760993 86.63996131349694 42.88152828994086 H 0.0 **** 0.06
20285 H 13.985421119613846 86.50120290966944 41.230523365329475 H 0.0 **** 0.06
20286 C 38.119784038759114 29.70946183899065 25.110269628392757 C 0.0 **** -0.24
20287 H 37.580255473758406 30.642380234022482 25.27281467243148 H 0.0 **** 0.06
20288 H 37.40938142705916 28.88534971025277 25.04195378750302 H 0.0 **** 0.06
20289 H 38.80179396703797 29.53395393627119 25.943294971674334 H 0.0 **** 0.06
20290 H 38.68930186936986 29.77679311720263 24.183248779797623 H 0.0 **** 0.06
20291 C 4.18494511213089 63.89236860990485 5.22359928687645 C 0.0 **** -0.24
20292 H 4.951878124473467 64.51479355548724 5.68533804544073 H 0.0 **** 0.06
20293 H 3.745725020563384 64.4242732661126 4.378832503674886 H 0.0 **** 0.06
20294 H 3.409732082974301 63.668183900622466 5.956475601756125 H 0.0 **** 0.06
20295 H 4.63462476128916 62.962653388021806 4.8734956235827696 H 0.0 **** 0.06
20296 C 41.30878166665531 57.892235928301446 9.476332736675204 C 0.0 **** -0.24
20297 H 40.245899015279065 57.801257259464606 9.700883561869318 H 0.0 **** 0.06
20298 H 41.571530048385 58.94599558455643 9.383690529133332 H 0.0 **** 0.06
20299 H 41.528268819359766 57.377875772174555 8.541782772370368 H 0.0 **** 0.06
20300 H 41.88881666897248 57.443472791633205 10.282649513559193 H 0.0 **** 0.06
20301 C 14.172137253242425 74.50063855307062 38.388121214061584 C 0.0 **** -0.24
20302 H 14.501892428640218 74.14237385588906 37.412581533145044 H 0.0 **** 0.06
20303 H 14.958808154890562 75.10724216194623 38.836461094969934 H 0.0 **** 0.06
20304 H 13.955950371970147 73.64896337168356 39.0333144695893 H 0.0 **** 0.06
20305 H 13.272089787438574 75.10306978415099 38.26785962692867 H 0.0 **** 0.06
20306 C 63.79786039809396 46.08188107728389 88.43667519267007 C 0.0 **** -0.24
20307 H 63.66637102999567 47.15264358360376 88.28458687800116 H 0.0 **** 0.06
20308 H 62.90543811559537 45.66971395171354 88.90859942327694 H 0.0 **** 0.06
20309 H 64.66156923617432 45.90963977613764 89.07744863094456 H 0.0 **** 0.06
20310 H 63.95694610799768 45.59555085750615 87.47412889687382 H 0.0 **** 0.06
20311 C 3.5507231084262827 46.41550953159327 60.851257892199584 C 0.0 **** -0.24
20312 H 4.000956108302333 46.762080561574294 61.78122050086225 H 0.0 **** 0.06
20313 H 3.903681180604181 47.03230534154966 60.02404915790834 H 0.0 **** 0.06
20314 H 2.465258198955368 46.48982964233741 60.92300882042193 H 0.0 **** 0.06
20315 H 3.832415140782956 45.376595374415956 60.67635867968602 H 0.0 **** 0.06
20316 C 19.472928090724125 0.36108044781149884 20.473316234893733 C 0.0 **** -0.24
20317 H 20.007596962152036 -0.35115403706029014 19.843872829103084 H 0.0 **** 0.06
20318 H 18.69382960409584 -0.1594556114162331 21.030663064783788 H 0.0 **** 0.06
20319 H 19.02054486534027 1.1296538615590386 19.846693518931882 H 0.0 **** 0.06
20320 H 20.171170057150576 0.8248474116090758 21.170093148741728 H 0.0 **** 0.06
20321 C 12.075473112197699 81.78746416255917 91.73882867030594 C 0.0 **** -0.24
20322 H 11.406460256305138 82.50148809954189 92.21929129138138 H 0.0 **** 0.06
20323 H 11.60872444702801 81.406271210477 90.83065560493614 H 0.0 **** 0.06
20324 H 12.274106703786288 80.9600259702824 92.42061711278976 H 0.0 **** 0.06
20325 H 13.013724594930409 82.28177514347784 91.48603520164278 H 0.0 **** 0.06
20326 C 0.05006628917918743 96.84341900074186 106.84422848916648 C 0.0 **** -0.24
20327 H 0.6542425153574714 96.04344617404578 106.41506847191903 H 0.0 **** 0.06
20328 H 0.6739435509308187 97.72429442282663 107.00187508269153 H 0.0 **** 0.06
20329 H -0.3622921253124982 96.51511222760806 107.79804654548116 H 0.0 **** 0.06
20330 H -0.7628063768181308 97.09078438531414 106.16174252894001 H 0.0 **** 0.06
20331 C 46.105498302443145 63.791093685620524 39.70376414363881 C 0.0 **** -0.24
20332 H 47.16730233803296 64.02578314460357 39.772841760721874 H 0.0 **** 0.06
20333 H 45.71403315408699 63.58213870798568 40.699029702502024 H 0.0 **** 0.06
20334 H 45.96762409140875 62.91651845721793 39.06808452825865 H 0.0 **** 0.06
20335 H 45.57326515184623 64.63951123485828 39.274224600452605 H 0.0 **** 0.06
20336 C 25.413464005360794 97.48657940148433 32.98932501810296 C 0.0 **** -0.24
20337 H 25.46845505759731 96.48588505813427 32.56142959251241 H 0.0 **** 0.06
20338 H 25.941021878797955 98.18812108026486 32.34328967984598 H 0.0 **** 0.06
20339 H 25.87376267000475 97.4841171794834 33.9766302988036 H 0.0 **** 0.06
20340 H 24.368687248246275 97.78677462940414 33.07646349352265 H 0.0 **** 0.06
20341 C 65.62482983178904 23.910514173476024 27.43470895283208 C 0.0 **** -0.24
20342 H 65.4240797260722 24.454959334811964 28.35663275793381 H 0.0 **** 0.06
20343 H 66.70042220626449 23.775120253801898 27.318940813133654 H 0.0 **** 0.06
20344 H 65.23542383560279 24.4754676339062 26.5870915164448 H 0.0 **** 0.06
20345 H 65.13787625554566 22.935993316158854 27.475513828469158 H 0.0 **** 0.06
20346 C 0.39687315874942897 88.65458493059052 106.83880521207706 C 0.0 **** -0.24
20347 H -0.16465962252547683 88.16714671581249 106.04166492273717 H 0.0 **** 0.06
20348 H 0.6210971106277441 87.92888196341212 107.62117249944154 H 0.0 **** 0.06
20349 H -0.19831892086898506 89.46794172612934 107.25648561395815 H 0.0 **** 0.06
20350 H 1.326999193050625 89.0549695102159 106.43589400458964 H 0.0 **** 0.06
20351 C 100.4139921794047 95.15740079500867 84.05665766655656 C 0.0 **** -0.24
20352 H 99.98579974078933 96.10285597893309 84.38967183947071 H 0.0 **** 0.06
20353 H 101.34217909059645 94.96923902994644 84.59744225798454 H 0.0 **** 0.06
20354 H 100.61956188902573 95.20831680932363 82.9881066408773 H 0.0 **** 0.06
20355 H 99.70872272172738 94.35023488457989 84.25309051764836 H 0.0 **** 0.06
20356 C 103.44998028134601 53.05094562341009 50.59069091583106 C 0.0 **** -0.24
20357 H 103.42732101690767 52.023434231982776 50.22672438442437 H 0.0 **** 0.06
20358 H 103.88818020790225 53.69617242781277 49.82885173879108 H 0.0 **** 0.06
20359 H 104.05188734363146 53.100991492820356 51.49835331546001 H 0.0 **** 0.06
20360 H 102.43440939259153 53.382003918695716 50.808543843324976 H 0.0 **** 0.06
20361 C 61.74487892966614 74.65477068368398 76.83649067469284 C 0.0 **** -0.24
20362 H 62.298901309117696 74.36645225770951 75.94241939297768 H 0.0 **** 0.06
20363 H 62.23502756242655 74.23795093612068 77.71662779310503 H 0.0 **** 0.06
20364 H 60.726589625225515 74.27180004228336 76.77122142116667 H 0.0 **** 0.06
20365 H 61.720740074607235 75.7415440813146 76.91320820504706 H 0.0 **** 0.06
20366 C 57.690700247405005 8.721597066334626 12.577542846100329 C 0.0 **** -0.24
20367 H 57.64203653830728 8.425083845171558 11.529885721930214 H 0.0 **** 0.06
20368 H 56.80485635391736 8.358034697510346 13.09927434177419 H 0.0 **** 0.06
20369 H 57.7318628626486 9.808739652934621 12.645699636851845 H 0.0 **** 0.06
20370 H 58.58278430082024 8.294524132814804 13.034671291401054 H 0.0 **** 0.06
20371 C 64.73638823441745 104.41515904844525 87.75100296397808 C 0.0 **** -0.24
20372 H 65.64910397522067 104.80042568297891 87.2972494290401 H 0.0 **** 0.06
20373 H 64.99240538572094 103.7650804783628 88.58756185161285 H 0.0 **** 0.06
20374 H 64.17476970024644 103.84765559669552 87.0084322954838 H 0.0 **** 0.06
20375 H 64.12881311747776 105.24663334673782 88.10874825485895 H 0.0 **** 0.06
20376 C 98.10246488926549 11.877983113606746 35.77951377217016 C 0.0 **** -0.24
20377 H 98.38963913939574 12.282204457403424 34.809264462358556 H 0.0 **** 0.06
20378 H 98.20831971724857 10.792806816775112 35.766555844216185 H 0.0 **** 0.06
20379 H 97.06483875973902 12.138727189054094 35.98943823076971 H 0.0 **** 0.06
20380 H 98.74579503087654 12.297054819253049 36.553108584962615 H 0.0 **** 0.06
20381 C 36.97055377825828 103.79459544285325 16.536531926211662 C 0.0 **** -0.24
20382 H 36.196859417897315 104.55435825904476 16.424450611695438 H 0.0 **** 0.06
20383 H 37.55216129834031 103.99886395243621 17.436337375611338 H 0.0 **** 0.06
20384 H 37.62712539569924 103.81317697114686 15.667011876212449 H 0.0 **** 0.06
20385 H 36.50457728439011 102.8121337620411 16.61998680430336 H 0.0 **** 0.06
20386 C 28.624659749373016 25.304482600240476 73.81473913760814 C 0.0 **** -0.24
20387 H 29.666449012268018 25.618585012123845 73.74377748517747 H 0.0 **** 0.06
20388 H 28.15406578117821 25.38128883364243 72.83454128570915 H 0.0 **** 0.06
20389 H 28.099857356288503 25.946652047881855 74.52242662503423 H 0.0 **** 0.06
20390 H 28.58032979589546 24.27100758565058 74.15947090625724 H 0.0 **** 0.06
20391 C 3.3327827649624027 98.14699141188947 18.173676183291846 C 0.0 **** -0.24
20392 H 3.841999973918462 97.97335273990623 19.12156654925286 H 0.0 **** 0.06
20393 H 3.2212840692100997 99.21947583175384 18.01317094433945 H 0.0 **** 0.06
20394 H 2.3486907906344925 97.67917231915706 18.199385771180147 H 0.0 **** 0.06
20395 H 3.919006508005893 97.71614941581271 17.362567335891782 H 0.0 **** 0.06
20396 C 30.182659817255598 100.75571081815735 7.7641678546851125 C 0.0 **** -0.24
20397 H 30.40246681476893 100.32237659828861 6.788168330568524 H 0.0 **** 0.06
20398 H 29.22330633645535 100.37908315929337 8.119790181138796 H 0.0 **** 0.06
20399 H 30.13815162088423 101.84161892840444 7.6773500453690104 H 0.0 **** 0.06
20400 H 30.966398401390336 100.47945118547452 8.469171493697004 H 0.0 **** 0.06
20401 C 38.49998659843355 14.7054384850762 70.35767691473689 C 0.0 **** -0.24
20402 H 39.04477658664143 15.596227663109062 70.04301793743474 H 0.0 **** 0.06
20403 H 37.43171068188174 14.859199495585017 70.20148511614101 H 0.0 **** 0.06
20404 H 38.68912357000883 14.518834368699004 71.41446297833966 H 0.0 **** 0.06
20405 H 38.8344543663151 13.849709043232622 69.77147206409043 H 0.0 **** 0.06
20406 C 14.351137773776884 100.11251485656169 60.07637167279188 C 0.0 **** -0.24
20407 H 14.785517884755848 99.98553552864368 61.067450795851244 H 0.0 **** 0.06
20408 H 14.231137862559876 101.17569195454058 59.86579097004835 H 0.0 **** 0.06
20409 H 13.377919516816348 99.62278867754841 60.03913978361078 H 0.0 **** 0.06
20410 H 15.011118228326154 99.6661612988826 59.330941516757434 H 0.0 **** 0.06
20411 C 25.467487928384493 46.410656056638345 78.3166356792409 C 0.0 **** -0.24
20412 H 24.870401071444874 47.253273131853746 78.66395313206418 H 0.0 **** 0.06
20413 H 25.106342450830308 45.493010950881796 78.78167991550762 H 0.0 **** 0.06
20414 H 26.511254415747725 46.56930084928638 78.58728498383987 H 0.0 **** 0.06
20415 H 25.38193335335256 46.3262574545447 77.23300150402265 H 0.0 **** 0.06
20416 C 17.47239182019925 84.03379288642584 87.75078816145742 C 0.0 **** -0.24
20417 H 17.27962986702252 85.1039399874023 87.81674007852592 H 0.0 **** 0.06
20418 H 17.812985515134045 83.78816502211863 86.74375553900097 H 0.0 **** 0.06
20419 H 16.556401340445376 83.4852414973887 87.96760252686363 H 0.0 **** 0.06
20420 H 18.240964941117994 83.75751832699837 88.47162889678543 H 0.0 **** 0.06
20421 C 66.9636818650969 67.48169258995654 82.60494971334003 C 0.0 **** -0.24
20422 H 67.73468914819776 67.00771942035023 81.99602772045647 H 0.0 **** 0.06
20423 H 67.17496321245298 68.54679591176179 82.69427364950448 H 0.0 **** 0.06
20424 H 66.95426954295064 67.02750484918896 83.59577291237372 H 0.0 **** 0.06
20425 H 65.99141325738952 67.34182320346612 82.13147420179999 H 0.0 **** 0.06
20426 C 9.01763909306294 51.07079988703332 13.09498244416892 C 0.0 **** -0.24
20427 H 8.245249777889683 51.390461215943056 12.39607182872885 H 0.0 **** 0.06
20428 H 9.201125879910194 50.003055891055034 12.970186124601923 H 0.0 **** 0.06
20429 H 8.686922791526001 51.265732941837946 14.116050818230804 H 0.0 **** 0.06
20430 H 9.936631153274163 51.62343343182408 12.899704527230085 H 0.0 **** 0.06
20431 C 50.04020750788564 75.38206149840461 65.72606419375015 C 0.0 **** -0.24
20432 H 50.159116983830216 74.73733186574994 64.85401829769197 H 0.0 **** 0.06
20433 H 49.42088050472353 74.87774346617657 66.46796452583553 H 0.0 **** 0.06
20434 H 49.561948811417835 76.31402792681952 65.42496803654271 H 0.0 **** 0.06
20435 H 51.01883235765024 75.5969039747793 66.15466283594188 H 0.0 **** 0.06
20436 C 0.0744544023049798 60.629105963930044 104.16965446069071 C 0.0 **** -0.24
20437 H 0.9218483807786129 60.036231663438706 104.51693145660637 H 0.0 **** 0.06
20438 H 0.3922513582090801 61.26652846138148 103.34394179399975 H 0.0 **** 0.06
20439 H -0.29320462564311356 61.24978808122685 104.98727068677252 H 0.0 **** 0.06
20440 H -0.7202997223652119 59.963965190129414 103.83160365112278 H 0.0 **** 0.06
20441 C 22.711719245667524 72.9617367567147 77.04692883958883 C 0.0 **** -0.24
20442 H 23.27048436679428 72.02873247937359 77.12178386680642 H 0.0 **** 0.06
20443 H 23.1799771699811 73.60662529061574 76.30321585094102 H 0.0 **** 0.06
20444 H 22.711584740082174 73.46232600211789 78.01510552274304 H 0.0 **** 0.06
20445 H 21.685544245394652 72.74721604049192 76.74875031579931 H 0.0 **** 0.06
20446 C 86.74683467791272 79.38399992042653 6.091119673262625 C 0.0 **** -0.24
20447 H 87.20264161755591 80.37389826237572 6.126191739801385 H 0.0 **** 0.06
20448 H 85.66205317141868 79.48565961344391 6.041620549542245 H 0.0 **** 0.06
20449 H 87.01904654709307 78.82707605110474 6.98786558141839 H 0.0 **** 0.06
20450 H 87.10276749755627 78.85078442834009 5.209940494165608 H 0.0 **** 0.06
20451 C 65.68327062924104 54.74749754334317 1.239214102298006 C 0.0 **** -0.24
20452 H 65.49657124215963 54.73107377875098 0.165187411872608 H 0.0 **** 0.06
20453 H 65.33842370679406 53.813730583261275 1.681327762821157 H 0.0 **** 0.06
20454 H 65.14614906054578 55.583512175085275 1.6878472378944132 H 0.0 **** 0.06
20455 H 66.75152652608591 54.86372528596419 1.4203442479372494 H 0.0 **** 0.06
20456 C 2.579689577053287 3.6331304151572557 31.480892967980722 C 0.0 **** -0.24
20457 H 1.7108395275083268 3.8335228398977055 30.854251796386706 H 0.0 **** 0.06
20458 H 2.9573532604040196 2.6318107872518564 31.270241779203126 H 0.0 **** 0.06
20459 H 2.294811096918295 3.7001887800587188 32.53040099046832 H 0.0 **** 0.06
20460 H 3.3575314640652607 4.366801372734729 31.267781117359803 H 0.0 **** 0.06
20461 C 90.72365782615238 92.27959798341752 2.4713236556604983 C 0.0 **** -0.24
20462 H 91.19348339221571 91.54043000300327 3.1205812056787323 H 0.0 **** 0.06
20463 H 90.44330166108334 93.1542142702162 3.0604837330038492 H 0.0 **** 0.06
20464 H 89.83245221952889 91.84803981942456 2.015071696150841 H 0.0 **** 0.06
20465 H 91.42389046318722 92.57639238913936 1.690664940230505 H 0.0 **** 0.06
20466 C 71.52235448952383 40.21089156148216 55.68079678044263 C 0.0 **** -0.24
20467 H 71.27264355059908 39.779142534589624 56.65024195904944 H 0.0 **** 0.06
20468 H 71.54202628878856 39.42362764919682 54.92716738796766 H 0.0 **** 0.06
20469 H 72.50186423822502 40.685530562910714 55.73664627225629 H 0.0 **** 0.06
20470 H 70.77295303328003 40.954910821472964 55.410825479982975 H 0.0 **** 0.06
20471 C 87.33686508802089 52.91192122908723 71.50269917867399 C 0.0 **** -0.24
20472 H 87.52684065787817 53.97850838781386 71.62166476788474 H 0.0 **** 0.06
20473 H 87.19548524419574 52.68470540239554 70.44577181923256 H 0.0 **** 0.06
20474 H 86.43734716644889 52.63973194084741 72.05670667086173 H 0.0 **** 0.06
20475 H 88.18552563026604 52.34642805930497 71.88647180505654 H 0.0 **** 0.06
20476 C 13.277551572351868 77.68711836566962 87.47437365925958 C 0.0 **** -0.24
20477 H 12.786679749251292 78.60481921938907 87.15118690278155 H 0.0 **** 0.06
20478 H 12.621278303249767 77.14524334456809 88.15594581251139 H 0.0 **** 0.06
20479 H 14.208471138483574 77.93439250306355 87.98537757849294 H 0.0 **** 0.06
20480 H 13.494405960119693 77.0651527047686 86.60554822967919 H 0.0 **** 0.06
20481 C 8.464964409725809 7.09780669480979 68.72316018187138 C 0.0 **** -0.24
20482 H 7.512327888285512 7.186101717336127 69.24529459622306 H 0.0 **** 0.06
20483 H 8.47908356402084 7.783005475150507 67.87473985375891 H 0.0 **** 0.06
20484 H 8.590459624569718 6.075614261960538 68.36657881171229 H 0.0 **** 0.06
20485 H 9.276955498244561 7.347454189917769 69.40583601202394 H 0.0 **** 0.06
20486 C 50.9873348038412 95.5801111977547 36.45420930169823 C 0.0 **** -0.24
20487 H 50.00164236248444 95.99198443064648 36.236733836897756 H 0.0 **** 0.06
20488 H 51.75037739502306 96.32062485123551 36.21417129346929 H 0.0 **** 0.06
20489 H 51.147582848697546 94.6843469331571 35.853703114982665 H 0.0 **** 0.06
20490 H 51.04803804692274 95.32359487416 37.51190689752345 H 0.0 **** 0.06
20491 C 8.651669552124133 97.52382704665544 3.130119228129831 C 0.0 **** -0.24
20492 H 9.437174241197312 97.029488686424 2.5591370529537745 H 0.0 **** 0.06
20493 H 7.856074329880485 97.83963826064232 2.4552064693639224 H 0.0 **** 0.06
20494 H 9.065735748041476 98.39413389054235 3.638504765956962 H 0.0 **** 0.06
20495 H 8.248367842555524 96.82931276567311 3.867889793642261 H 0.0 **** 0.06
20496 C 45.68943171087285 94.72774949383091 70.07195577906924 C 0.0 **** -0.24
20497 H 44.71679620149533 94.9937908414405 69.65691250595088 H 0.0 **** 0.06
20498 H 46.23201996365198 94.10981267773298 69.35615775580277 H 0.0 **** 0.06
20499 H 45.54936503112158 94.17253458573856 70.99898188415762 H 0.0 **** 0.06
20500 H 46.258037944433376 95.63485334544515 70.27411960124704 H 0.0 **** 0.06
20501 C 14.354279059552738 33.2937544453317 49.55864139773371 C 0.0 **** -0.24
20502 H 13.784427225797998 33.29035208447982 50.48760856684535 H 0.0 **** 0.06
20503 H 13.683402402857027 33.494866386119895 48.722818298642295 H 0.0 **** 0.06
20504 H 14.82876455653998 32.32263673461492 49.419549388498524 H 0.0 **** 0.06
20505 H 15.119327960384567 34.06930136258859 49.60458594813127 H 0.0 **** 0.06
20506 C 81.80881415114476 25.476901906544597 70.75049231743148 C 0.0 **** -0.24
20507 H 80.83048163491617 25.10806584399711 71.06086502650692 H 0.0 **** 0.06
20508 H 82.23218359552651 26.092032768138154 71.54406840777952 H 0.0 **** 0.06
20509 H 81.70048242775887 26.074354797651424 69.84510510627595 H 0.0 **** 0.06
20510 H 82.46911745763906 24.633020538944393 70.55174759014406 H 0.0 **** 0.06
20511 C 48.89750280658655 74.17244977578358 100.127471291908 C 0.0 **** -0.24
20512 H 48.853796311184965 74.86688981883415 100.9657376089908 H 0.0 **** 0.06
20513 H 48.16638048315632 73.37679984526937 100.27602806758033 H 0.0 **** 0.06
20514 H 49.89667099285492 73.74183660531276 100.06458311648548 H 0.0 **** 0.06
20515 H 48.672697950108116 74.70526682035668 99.20264452110678 H 0.0 **** 0.06
20516 C 69.49130299001938 104.93388015146388 32.923784852504824 C 0.0 **** -0.24
20517 H 70.3612828718748 104.58542594995325 32.36744110253842 H 0.0 **** 0.06
20518 H 68.61323622157843 104.90842284143058 32.27856599344906 H 0.0 **** 0.06
20519 H 69.66359718575298 105.95600555092625 33.26316097746792 H 0.0 **** 0.06
20520 H 69.32854473979883 104.28696590696433 33.78643105321605 H 0.0 **** 0.06
20521 C 15.204657996458337 96.62427512373537 36.23435483779308 C 0.0 **** -0.24
20522 H 15.632167627405806 97.4305873071705 35.638614229706434 H 0.0 **** 0.06
20523 H 15.970316617439835 96.2137525219577 36.89284157948265 H 0.0 **** 0.06
20524 H 14.836529752228799 95.8400985931996 35.57167502009432 H 0.0 **** 0.06
20525 H 14.379706311542122 97.01135639517096 36.83140965649061 H 0.0 **** 0.06
20526 C 19.9912287236847 27.092005116774203 56.87424592262829 C 0.0 **** -0.24
20527 H 19.13907720029888 26.575521720367846 57.31603590597393 H 0.0 **** 0.06
20528 H 19.644507433212965 27.989337058609635 56.359892419085725 H 0.0 **** 0.06
20529 H 20.485196538497583 26.431994422719356 56.16118464359835 H 0.0 **** 0.06
20530 H 20.693825971623596 27.371457916295896 57.65910255313696 H 0.0 **** 0.06
20531 C 1.0299521923894543 59.50575625248723 78.10671602582681 C 0.0 **** -0.24
20532 H 0.7554355164736064 58.46463723801986 78.27604261278734 H 0.0 **** 0.06
20533 H 1.3662840209202551 59.629622522715465 77.07687778700708 H 0.0 **** 0.06
20534 H 1.8342793814883027 59.78463520988407 78.78795096271182 H 0.0 **** 0.06
20535 H 0.16477396533040167 60.14313029961767 78.28572610333589 H 0.0 **** 0.06
20536 C 3.5537312999962865 57.41265218106321 50.22626280582335 C 0.0 **** -0.24
20537 H 4.352091178938963 58.07689681367332 49.89474463514853 H 0.0 **** 0.06
20538 H 3.7812151382714205 56.391331341858894 49.91904365625794 H 0.0 **** 0.06
20539 H 2.611305196881119 57.726424551108046 49.77872667067709 H 0.0 **** 0.06
20540 H 3.4734470859770568 57.455614906557095 51.31227953636858 H 0.0 **** 0.06
20541 C 41.9002682145516 19.076202535922135 40.08451166213117 C 0.0 **** -0.24
20542 H 42.27855252093627 19.95164371650911 40.61390046627145 H 0.0 **** 0.06
20543 H 42.00399265358237 19.22946451769016 39.01049504346274 H 0.0 **** 0.06
20544 H 40.849367220426586 18.928319019197545 40.332715736402925 H 0.0 **** 0.06
20545 H 42.47202033891608 18.197073952980062 40.38409172702753 H 0.0 **** 0.06
20546 C 60.63127655806986 2.070063621962163 19.919832669102703 C 0.0 **** -0.24
20547 H 60.92910505296305 1.4797815315238267 19.05307436223569 H 0.0 **** 0.06
20548 H 61.41407995297621 2.7928864359799945 20.15343877150238 H 0.0 **** 0.06
20549 H 60.48011579677339 1.4094626300368418 20.7741356047417 H 0.0 **** 0.06
20550 H 59.703553687624975 2.5968334055482956 19.69920964342225 H 0.0 **** 0.06
20551 C 97.274631831156 37.24934531779216 75.70199598757273 C 0.0 **** -0.24
20552 H 96.55185506120469 36.45415583228072 75.88212673932145 H 0.0 **** 0.06
20553 H 98.28451432021681 36.85064593715538 75.80023491353901 H 0.0 **** 0.06
20554 H 97.12689744271698 38.04674581292906 76.43088469457808 H 0.0 **** 0.06
20555 H 97.13569330700633 37.64639882508382 74.69708144068554 H 0.0 **** 0.06
20556 C 43.04137118186566 64.01243356441552 97.9691900819725 C 0.0 **** -0.24
20557 H 42.27885142689291 63.29377734131343 98.26733350924872 H 0.0 **** 0.06
20558 H 43.92450377653802 63.479155923913765 97.61685146406256 H 0.0 **** 0.06
20559 H 43.30879273114368 64.6334577114164 98.82344963139417 H 0.0 **** 0.06
20560 H 42.654316910945 64.64241071184955 97.16871368503683 H 0.0 **** 0.06
20561 C 58.25663416808462 28.299291479195375 3.420162757030539 C 0.0 **** -0.24
20562 H 58.20839803928445 28.523082892194196 4.48644154070098 H 0.0 **** 0.06
20563 H 59.28448061430211 28.40961981469374 3.0730027112586527 H 0.0 **** 0.06
20564 H 57.612010311160304 28.98904106481055 2.8752120188800347 H 0.0 **** 0.06
20565 H 57.92255003196723 27.277029353286366 3.2483618455663077 H 0.0 **** 0.06
20566 C 103.54861879670901 16.436375231868595 96.36659733604995 C 0.0 **** -0.24
20567 H 103.45780447918764 17.126916310683043 97.20478196041952 H 0.0 **** 0.06
20568 H 103.3571672054744 15.419632489159028 96.71164407767978 H 0.0 **** 0.06
20569 H 104.55652394060064 16.496679492249683 95.95539136909295 H 0.0 **** 0.06
20570 H 102.82486329354191 16.701909195846298 95.59665035803246 H 0.0 **** 0.06
20571 C 55.014566021796725 52.36150063253555 102.55267747615397 C 0.0 **** -0.24
20572 H 55.615143359807675 52.84288611031374 103.32538935963564 H 0.0 **** 0.06
20573 H 53.992266522590725 52.23891355535574 102.91129409398124 H 0.0 **** 0.06
20574 H 55.43831944029419 51.38436393653561 102.32004548711008 H 0.0 **** 0.06
20575 H 55.01392569793558 52.980590701652176 101.65556221993533 H 0.0 **** 0.06
20576 C 50.1729534981032 2.37022755115511 92.50008927045097 C 0.0 **** -0.24
20577 H 49.908408793388446 3.35066515513134 92.89771468277125 H 0.0 **** 0.06
20578 H 49.428487926144356 1.638429515153546 92.81575747261452 H 0.0 **** 0.06
20579 H 51.15292944957392 2.07783034621551 92.87710347589878 H 0.0 **** 0.06
20580 H 50.20061362076444 2.4147331025876966 91.41137908050274 H 0.0 **** 0.06
20581 C 73.55122544363118 48.29744802097724 37.427780721991354 C 0.0 **** -0.24
20582 H 72.78980309937467 48.90228604607839 37.92018165821014 H 0.0 **** 0.06
20583 H 73.35212385690957 48.2652767848256 36.35657192821526 H 0.0 **** 0.06
20584 H 73.53079199976693 47.28584068524941 37.83306799832826 H 0.0 **** 0.06
20585 H 74.53322999180969 48.73857616576353 37.60164498801939 H 0.0 **** 0.06
20586 C 81.62767731267513 68.01191338432946 70.62508144578305 C 0.0 **** -0.24
20587 H 80.71526940462238 67.45402371898781 70.41203289570495 H 0.0 **** 0.06
20588 H 82.48537600537136 67.47390040328109 70.22133809592464 H 0.0 **** 0.06
20589 H 81.74219623313567 68.12144273194995 71.70396674658394 H 0.0 **** 0.06
20590 H 81.56654738117595 68.99751113711966 70.16461769547607 H 0.0 **** 0.06
20591 C 87.7508274710031 89.22730045978321 14.185379012449971 C 0.0 **** -0.24
20592 H 87.69692568406703 88.48017917361298 14.977555200602978 H 0.0 **** 0.06
20593 H 88.51284002621514 89.96594050173289 14.434562624571754 H 0.0 **** 0.06
20594 H 86.78360987536558 89.72138208073713 14.087123040378344 H 0.0 **** 0.06
20595 H 88.00790563321428 88.74165969851671 13.244485003521902 H 0.0 **** 0.06
20596 C 21.467374517240103 35.7750139892874 5.781194950649471 C 0.0 **** -0.24
20597 H 22.373794891178022 36.2919034653097 6.0957105523073025 H 0.0 **** 0.06
20598 H 21.68853219791208 34.71995656623187 5.618563956768089 H 0.0 **** 0.06
20599 H 21.101354987833076 36.21636716591746 4.854460489389268 H 0.0 **** 0.06
20600 H 20.706088303455772 35.872006032348935 6.555099041507381 H 0.0 **** 0.06
20601 C 49.87520485831817 71.0813250983509 2.9850459548333106 C 0.0 **** -0.24
20602 H 50.14290175388305 72.11274202851484 2.7563951731941643 H 0.0 **** 0.06
20603 H 50.359746667181014 70.77687053285035 3.9130375415990954 H 0.0 **** 0.06
20604 H 50.20397194569102 70.43266093527814 2.1729907094486407 H 0.0 **** 0.06
20605 H 48.793314728549774 71.00301816173518 3.09729358023975 H 0.0 **** 0.06
20606 C 33.24377933924704 53.761975842428285 48.53006811531536 C 0.0 **** -0.24
20607 H 33.251317365333826 54.01844864061407 47.47027161092342 H 0.0 **** 0.06
20608 H 32.33460588395818 54.14764965650661 48.9909195308549 H 0.0 **** 0.06
20609 H 34.1142858807843 54.20148823680032 49.015989792320134 H 0.0 **** 0.06
20610 H 33.275064730495366 52.67756772937135 48.64055803842411 H 0.0 **** 0.06
20611 C 77.54557138184072 69.04528170531813 16.38288036247768 C 0.0 **** -0.24
20612 H 78.26412518486623 69.8647036356509 16.37023790817699 H 0.0 **** 0.06
20613 H 77.35058921301658 68.71812755552168 15.36074783600619 H 0.0 **** 0.06
20614 H 76.61641328913302 69.38423065604604 16.84017624016042 H 0.0 **** 0.06
20615 H 77.95268179579855 68.2145399771695 16.95879352749018 H 0.0 **** 0.06
20616 C 64.9681598341193 25.215846675346853 87.37282369906703 C 0.0 **** -0.24
20617 H 64.5345508382774 24.217542990497748 87.32698010027619 H 0.0 **** 0.06
20618 H 64.20641305069806 25.92753690736464 87.69257297620058 H 0.0 **** 0.06
20619 H 65.33704975534701 25.4977504518167 86.38607031240184 H 0.0 **** 0.06
20620 H 65.7930016723839 25.22163342191385 88.08418723898785 H 0.0 **** 0.06
20621 C 67.27782960771947 86.81420445196491 79.89705987019498 C 0.0 **** -0.24
20622 H 67.4082040112192 86.40607654198826 78.8939981050076 H 0.0 **** 0.06
20623 H 68.2088644274229 87.27714076465799 80.2248065146259 H 0.0 **** 0.06
20624 H 67.00918735090403 86.01057237299068 80.58339329517462 H 0.0 **** 0.06
20625 H 66.48429393671597 87.56169233653638 79.88442138572744 H 0.0 **** 0.06
20626 C 0.5950474266207095 36.426781478601555 48.86058821953672 C 0.0 **** -0.24
20627 H 0.537206634721656 37.51518830772835 48.80781657251586 H 0.0 **** 0.06
20628 H -0.0350697730289653 36.06969713194596 49.67486321500203 H 0.0 **** 0.06
20629 H 1.6280264280502763 36.127601028963255 49.03973389638343 H 0.0 **** 0.06
20630 H 0.250704974975946 35.9991154502645 47.91871202044758 H 0.0 **** 0.06
20631 C 90.36450724658997 18.705335933815263 52.48907095881727 C 0.0 **** -0.24
20632 H 91.42170106182485 18.653005172049532 52.23024398417669 H 0.0 **** 0.06
20633 H 89.87302181478802 19.450712789747996 51.86238108152391 H 0.0 **** 0.06
20634 H 90.26021135220881 18.98649948516217 53.53676609946685 H 0.0 **** 0.06
20635 H 89.90180037864886 17.73126865611303 52.32634093937526 H 0.0 **** 0.06
20636 C 46.87764903899513 87.09975942894253 88.32946890093376 C 0.0 **** -0.24
20637 H 47.375987682937144 88.05835607782213 88.18225543125062 H 0.0 **** 0.06
20638 H 47.493899982700526 86.46475351423662 88.96560170914884 H 0.0 **** 0.06
20639 H 46.7305459698972 86.61544600653495 87.36423686013808 H 0.0 **** 0.06
20640 H 45.91049116828226 87.26345353852732 88.8055304853221 H 0.0 **** 0.06
20641 C 10.919481916401878 63.99160176323309 57.43254471070742 C 0.0 **** -0.24
20642 H 11.787021312765546 64.40601199632404 57.94638542055605 H 0.0 **** 0.06
20643 H 10.215162254179972 63.5996708987018 58.16739693456905 H 0.0 **** 0.06
20644 H 11.23851391410335 63.1879126148021 56.768967253894075 H 0.0 **** 0.06
20645 H 10.436059195234293 64.77471503097247 56.84735341706952 H 0.0 **** 0.06
20646 C 90.40546213101726 11.62803598965067 96.61980640035125 C 0.0 **** -0.24
20647 H 91.16414563680425 11.143340044536018 97.23352037560927 H 0.0 **** 0.06
20648 H 89.44804406574309 11.127238169657858 96.76265207771762 H 0.0 **** 0.06
20649 H 90.69435253940605 11.56905530633341 95.57083677255443 H 0.0 **** 0.06
20650 H 90.3157388426529 12.674527546519187 96.91307915889563 H 0.0 **** 0.06
20651 C 43.58891827100115 55.88392803056243 84.0290206180596 C 0.0 **** -0.24
20652 H 43.88053572829182 54.998294678567255 83.464714389937 H 0.0 **** 0.06
20653 H 42.55629221049708 55.77853947730226 84.36210227688292 H 0.0 **** 0.06
20654 H 43.67697013991881 56.764403341487096 83.39227120264712 H 0.0 **** 0.06
20655 H 44.241755739789824 55.994370237971395 84.89455018967283 H 0.0 **** 0.06
20656 C 17.989130514472578 98.95842834352955 24.207652827285585 C 0.0 **** -0.24
20657 H 18.8110204085025 99.39909158711639 23.643322589249635 H 0.0 **** 0.06
20658 H 18.313230810804598 98.01091245098111 24.639129802185465 H 0.0 **** 0.06
20659 H 17.14415264355364 98.7845868459126 23.541324647481673 H 0.0 **** 0.06
20660 H 17.69049314638812 99.63860806246433 25.00507489969192 H 0.0 **** 0.06
20661 C 62.19703222940012 27.542528990475063 48.824395525385754 C 0.0 **** -0.24
20662 H 62.742678053591305 27.76382197275987 49.74143191355646 H 0.0 **** 0.06
20663 H 62.774666439931195 27.886029227308086 47.96550142774719 H 0.0 **** 0.06
20664 H 61.23351805111173 28.05258804612123 48.842778398811355 H 0.0 **** 0.06
20665 H 62.03601969524533 26.466481179066733 48.74774142370109 H 0.0 **** 0.06
20666 C 61.71936126046555 89.18532306517561 91.19773339146089 C 0.0 **** -0.24
20667 H 61.58378069581798 88.1342626159483 91.4509556450844 H 0.0 **** 0.06
20668 H 62.65722753828808 89.54366670224115 91.62350967613254 H 0.0 **** 0.06
20669 H 60.890939703516636 89.7669891855571 91.60276546639328 H 0.0 **** 0.06
20670 H 61.746251342278555 89.29702953072112 90.11366913604442 H 0.0 **** 0.06
20671 C 17.322784408793723 47.16951042457296 65.48313644289175 C 0.0 **** -0.24
20672 H 17.54004953828246 46.88091643670921 64.4541830264883 H 0.0 **** 0.06
20673 H 17.029086094082658 46.287405676483694 66.05322440002072 H 0.0 **** 0.06
20674 H 16.509140892777552 47.89500135824783 65.49245614230978 H 0.0 **** 0.06
20675 H 18.211539351797143 47.613962665577084 65.93104442603266 H 0.0 **** 0.06
20676 C 72.64194139548927 67.15987922093029 61.74799514495324 C 0.0 **** -0.24
20677 H 73.7259616794848 67.04469105335772 61.75179384326576 H 0.0 **** 0.06
20678 H 72.17642258807567 66.20177438428914 61.515624545930834 H 0.0 **** 0.06
20679 H 72.35687608561071 67.89550569428849 60.9966276479615 H 0.0 **** 0.06
20680 H 72.31044422831468 67.49749051316627 62.72999308532076 H 0.0 **** 0.06
20681 C 89.85135545793915 15.42450059549153 30.007613203769694 C 0.0 **** -0.24
20682 H 88.8575013452476 15.817268377440602 30.22374327587687 H 0.0 **** 0.06
20683 H 90.57553889104196 15.877277750876232 30.685492949729962 H 0.0 **** 0.06
20684 H 90.11871348621821 15.660780123417236 28.97834729452532 H 0.0 **** 0.06
20685 H 89.85080532905215 14.343076280788488 30.14502451366002 H 0.0 **** 0.06
20686 C 53.4196280104444 97.65427897887302 93.34717609426019 C 0.0 **** -0.24
20687 H 53.54016552799993 96.58095719798241 93.48705703402352 H 0.0 **** 0.06
20688 H 54.3440387627586 98.16277520412841 93.62292254471504 H 0.0 **** 0.06
20689 H 52.60497728799777 98.0138611849081 93.97596902959647 H 0.0 **** 0.06
20690 H 53.189858763768484 97.86096064930265 92.30194813657565 H 0.0 **** 0.06
20691 C 4.831676912642891 90.73126017920826 78.92315840904612 C 0.0 **** -0.24
20692 H 5.204106788187744 90.72877135101618 79.94748184123063 H 0.0 **** 0.06
20693 H 5.615235500513933 91.08396730394335 78.25265238853845 H 0.0 **** 0.06
20694 H 3.967081098457683 91.39261232041018 78.85277935050223 H 0.0 **** 0.06
20695 H 4.53821776984401 89.71979508347897 78.64103107981813 H 0.0 **** 0.06
20696 C 10.86503775474473 84.73177529982758 73.45781995892055 C 0.0 **** -0.24
20697 H 11.828024541915887 84.7422215115891 73.96978001456873 H 0.0 **** 0.06
20698 H 11.022369719953694 84.87263442955265 72.38811107282812 H 0.0 **** 0.06
20699 H 10.23951002885873 85.5365507087655 73.84322271460678 H 0.0 **** 0.06
20700 H 10.373616598595838 83.77441275968994 73.63020587854156 H 0.0 **** 0.06
20701 C 88.5602388172733 16.529483366713368 23.827319202757963 C 0.0 **** -0.24
20702 H 88.71735377678365 17.028183185852164 22.870510903023813 H 0.0 **** 0.06
20703 H 88.09984123844589 15.556086830722816 23.65808279816389 H 0.0 **** 0.06
20704 H 87.90450551473467 17.13869043984689 24.44962161960956 H 0.0 **** 0.06
20705 H 89.51841845725167 16.396481556016987 24.329322180277643 H 0.0 **** 0.06
20706 C 1.7889306181998323 60.49044235887081 92.52727184316672 C 0.0 **** -0.24
20707 H 2.3090357730668254 59.533902891952124 92.48662041538518 H 0.0 **** 0.06
20708 H 0.7124526596996832 60.31931038202575 92.49974380302783 H 0.0 **** 0.06
20709 H 2.0828377636192803 61.10028579424224 91.67341573859434 H 0.0 **** 0.06
20710 H 2.051430400193385 61.008039544058676 93.45027983648637 H 0.0 **** 0.06
20711 C 11.351487008360586 93.17189118992775 71.42061714770693 C 0.0 **** -0.24
20712 H 11.14290505185735 92.14495145526655 71.12100899416973 H 0.0 **** 0.06
20713 H 11.375984698439328 93.23475896861777 72.50911899523808 H 0.0 **** 0.06
20714 H 10.569775953413354 93.82771678254767 71.0364943095577 H 0.0 **** 0.06
20715 H 12.315412246868302 93.47988574239224 71.01650928926067 H 0.0 **** 0.06
20716 C 96.53870764073079 64.905054385448 18.70768552807134 C 0.0 **** -0.24
20717 H 95.81402677474367 64.10084909088827 18.8298130640975 H 0.0 **** 0.06
20718 H 96.92036072216501 64.89829732865459 17.68646126378727 H 0.0 **** 0.06
20719 H 97.36279119314571 64.76026887299962 19.405538746169412 H 0.0 **** 0.06
20720 H 96.05727262864013 65.86243666445993 18.909359153190955 H 0.0 **** 0.06
20721 C 34.50274313443495 60.231717596674095 17.748086398608848 C 0.0 **** -0.24
20722 H 34.52943553074809 59.606284691244596 16.85556137295248 H 0.0 **** 0.06
20723 H 34.109761802699666 59.65517917251315 18.584725965873417 H 0.0 **** 0.06
20724 H 33.861688778614706 61.095150781959504 17.567049918422526 H 0.0 **** 0.06
20725 H 35.51205101155142 60.57159625132533 17.98248960994283 H 0.0 **** 0.06
20726 C 70.35634079411187 29.35139889824879 29.242452881011474 C 0.0 **** -0.24
20727 H 70.93722443345371 30.0532158321962 29.840803857585527 H 0.0 **** 0.06
20728 H 69.41799874782781 29.818700350765525 28.94396962044469 H 0.0 **** 0.06
20729 H 70.14653923643755 28.458830435057877 29.83191751523642 H 0.0 **** 0.06
20730 H 70.92405415614746 29.075073433420727 28.353983140328715 H 0.0 **** 0.06
20731 C 83.05419865922677 95.07850428085828 74.09859704117886 C 0.0 **** -0.24
20732 H 82.48809075156436 95.15908548000743 75.02670383786844 H 0.0 **** 0.06
20733 H 83.76908930491004 94.25897803536185 74.17914426042468 H 0.0 **** 0.06
20734 H 83.58816760814668 96.01079192251427 73.91700799092654 H 0.0 **** 0.06
20735 H 82.37011260280734 94.88515906768754 73.27200063001511 H 0.0 **** 0.06
20736 C 58.03683212577341 28.09187494963973 105.47336226149513 C 0.0 **** -0.24
20737 H 58.471190832038104 27.681336698832865 104.56182259329529 H 0.0 **** 0.06
20738 H 56.9582323039452 27.9363393472847 105.4627892487349 H 0.0 **** 0.06
20739 H 58.250325328591316 29.159748435683724 105.52804877938647 H 0.0 **** 0.06
20740 H 58.46804064149971 27.5897931451656 106.33994683669879 H 0.0 **** 0.06
20741 C 74.23111266881551 17.02674149393863 31.61854129945091 C 0.0 **** -0.24
20742 H 73.95017419786484 16.290345528903657 30.86625131451784 H 0.0 **** 0.06
20743 H 73.88304730741771 16.695961956918296 32.597737995049755 H 0.0 **** 0.06
20744 H 73.77327058333057 17.986158979977517 31.375569146451 H 0.0 **** 0.06
20745 H 75.31500652227767 17.134617077718275 31.63408529360872 H 0.0 **** 0.06
20746 C 23.20212805800975 95.79233856081214 92.57994506011488 C 0.0 **** -0.24
20747 H 23.19153204053495 95.0141323226174 93.34400169862732 H 0.0 **** 0.06
20748 H 23.585455204378484 96.71697456851014 93.01017895962673 H 0.0 **** 0.06
20749 H 22.18804368681971 95.95322082566572 92.21328920085051 H 0.0 **** 0.06
20750 H 23.841592653908908 95.48140259706794 91.75382729450172 H 0.0 **** 0.06
20751 C 105.43308397961599 59.69397479429566 46.63067322285095 C 0.0 **** -0.24
20752 H 105.48803983528794 60.782142451445594 46.654394357156775 H 0.0 **** 0.06
20753 H 106.29261893156729 59.27491436404064 47.15414217569962 H 0.0 **** 0.06
20754 H 105.43535232591017 59.3515970940199 45.595916698278145 H 0.0 **** 0.06
20755 H 104.51498664103693 59.36568472167802 47.119571664130724 H 0.0 **** 0.06
20756 C 96.20279634757422 57.68509327771295 32.74703840014138 C 0.0 **** -0.24
20757 H 96.54242632033072 58.71731023609544 32.83350428152451 H 0.0 **** 0.06
20758 H 95.12855683901925 57.64015440038878 32.92728739770422 H 0.0 **** 0.06
20759 H 96.72118713419577 57.069271949480935 33.48234501380094 H 0.0 **** 0.06
20760 H 96.41981358031022 57.31421286026165 31.744842816783944 H 0.0 **** 0.06
20761 C 88.5689651003991 22.14517783556599 60.585350134818384 C 0.0 **** -0.24
20762 H 88.40207651524949 22.938820457736426 61.3137945782496 H 0.0 **** 0.06
20763 H 87.61800758133552 21.6702310004178 60.342646529379635 H 0.0 **** 0.06
20764 H 89.24888178864933 21.404606414904094 61.00459576854793 H 0.0 **** 0.06
20765 H 89.0051931474552 22.5688082222577 59.68052633410647 H 0.0 **** 0.06
20766 C 53.65792421330286 94.96382762699214 44.04159646783236 C 0.0 **** -0.24
20767 H 53.25677922782461 95.83452000801783 43.522172538148 H 0.0 **** 0.06
20768 H 53.74434275427075 95.18435426114912 45.105316601874506 H 0.0 **** 0.06
20769 H 54.641784726238825 94.72289764499416 43.638225706208715 H 0.0 **** 0.06
20770 H 52.98893295768346 94.11528675599908 43.89752076604864 H 0.0 **** 0.06
20771 C 25.19540497789751 36.75848858022519 75.69289644488227 C 0.0 **** -0.24
20772 H 25.834689379825335 36.18504350948626 75.0225563407123 H 0.0 **** 0.06
20773 H 25.223874140770732 37.811368176834165 75.40903229795893 H 0.0 **** 0.06
20774 H 25.55193557195841 36.649137831509904 76.71702780753412 H 0.0 **** 0.06
20775 H 24.17205413766135 36.39034716444456 75.62237235855513 H 0.0 **** 0.06
20776 C 36.4735412409801 38.08347778898781 100.93695601849491 C 0.0 **** -0.24
20777 H 36.85137330564356 38.17848985818108 101.9553863722808 H 0.0 **** 0.06
20778 H 36.605089957366914 37.056707047689144 100.5963132962886 H 0.0 **** 0.06
20779 H 37.02544186617172 38.757468981555974 100.28086278164977 H 0.0 **** 0.06
20780 H 35.41513989982835 38.34166505809634 100.91598923370069 H 0.0 **** 0.06
20781 C 94.8860834417973 72.20373883618555 65.28894855566075 C 0.0 **** -0.24
20782 H 94.96164652574835 73.24473063588732 65.60354514133758 H 0.0 **** 0.06
20783 H 94.14412277206691 72.11825681634713 64.49528686568745 H 0.0 **** 0.06
20784 H 94.58570113671347 71.58919110481034 66.13753930473824 H 0.0 **** 0.06
20785 H 95.85472649202728 71.86545614351584 64.92001468457013 H 0.0 **** 0.06
20786 C 53.31098114341535 35.46611582994598 77.03355773902078 C 0.0 **** -0.24
20787 H 53.007772902216544 35.178899876455944 78.04112934247024 H 0.0 **** 0.06
20788 H 52.429653536613955 35.736887611788745 76.45279103537159 H 0.0 **** 0.06
20789 H 53.819435932970464 34.62863072658641 76.55498467829763 H 0.0 **** 0.06
20790 H 53.98740048545494 36.31879401019307 77.08740450582258 H 0.0 **** 0.06
20791 C 42.94010810239059 10.12245691465192 46.58771418587111 C 0.0 **** -0.24
20792 H 43.93560549028526 9.912938160998849 46.19566243730418 H 0.0 **** 0.06
20793 H 42.26914784937823 9.30183621378184 46.33196087992991 H 0.0 **** 0.06
20794 H 42.56587681500917 11.048583060651481 46.152374118084424 H 0.0 **** 0.06
20795 H 42.99177016829056 10.225477474411761 47.671927972298136 H 0.0 **** 0.06
20796 C 57.147271122744925 93.24099848623352 93.5072387010328 C 0.0 **** -0.24
20797 H 57.887031741389286 94.02878024748938 93.65214165162138 H 0.0 **** 0.06
20798 H 57.49210677518601 92.55846215999279 92.73023338447632 H 0.0 **** 0.06
20799 H 56.19869930777757 93.68534166693351 93.20664040891444 H 0.0 **** 0.06
20800 H 57.01287037020556 92.69289396846663 94.43953777449775 H 0.0 **** 0.06
20801 C 96.2239309590129 38.88530549820257 32.28963434738525 C 0.0 **** -0.24
20802 H 96.34333363569579 37.80483760924875 32.3727780244127 H 0.0 **** 0.06
20803 H 95.54784456416242 39.236438554398504 33.069444894079396 H 0.0 **** 0.06
20804 H 95.80981152408657 39.13115805272477 31.310961062928236 H 0.0 **** 0.06
20805 H 97.19456384065157 39.36792682587307 32.40487401495843 H 0.0 **** 0.06
20806 C 54.11922409381032 88.32000717494961 64.27503547344702 C 0.0 **** -0.24
20807 H 54.12435256579431 87.48501686138923 63.57460305682912 H 0.0 **** 0.06
20808 H 55.09450346538205 88.80785234619336 64.26454750723633 H 0.0 **** 0.06
20809 H 53.90676948731948 87.95116011023634 65.27851471725444 H 0.0 **** 0.06
20810 H 53.35186800147426 89.03611548110649 63.980854861159 H 0.0 **** 0.06
20811 C 96.10280066051625 31.93326907625338 90.7936035060714 C 0.0 **** -0.24
20812 H 95.96481866894942 31.48365276210977 91.77672650444512 H 0.0 **** 0.06
20813 H 96.97422126353266 31.491355664908127 90.31108060654982 H 0.0 **** 0.06
20814 H 96.25361645282072 33.00784334883391 90.90400960999642 H 0.0 **** 0.06
20815 H 95.21805838271457 31.752357032857432 90.18306059277326 H 0.0 **** 0.06
20816 C 52.482404262618054 44.22247998214104 81.78635708767123 C 0.0 **** -0.24
20817 H 53.059865489134104 43.4725724574279 81.2459665514408 H 0.0 **** 0.06
20818 H 51.41853269052193 44.04519530129167 81.62921664071152 H 0.0 **** 0.06
20819 H 52.74381914068424 45.21559692099112 81.41969135600351 H 0.0 **** 0.06
20820 H 52.709413334832355 44.15750191769379 82.85033144143208 H 0.0 **** 0.06
20821 C 86.90252052971903 25.969362705226164 63.43705203195722 C 0.0 **** -0.24
20822 H 86.10912187951425 25.22442884121549 63.3753119900916 H 0.0 **** 0.06
20823 H 87.44888164018658 25.997854242895613 62.49362501559952 H 0.0 **** 0.06
20824 H 87.58536345010708 25.706943616255753 64.24527074415622 H 0.0 **** 0.06
20825 H 86.46628267080706 26.949050286590147 63.63363918792675 H 0.0 **** 0.06
20826 C 56.70245426157911 52.20020550367968 20.891911552191786 C 0.0 **** -0.24
20827 H 57.72078441850615 51.82146149593859 20.804154060743684 H 0.0 **** 0.06
20828 H 56.65452607290212 52.9261476707826 21.703913147371082 H 0.0 **** 0.06
20829 H 56.02458312004733 51.37371181542545 21.10346195183361 H 0.0 **** 0.06
20830 H 56.41139810538315 52.679311551294745 19.957454818562923 H 0.0 **** 0.06
20831 C 68.55884659174431 75.59737155873358 71.45894404265157 C 0.0 **** -0.24
20832 H 68.9011659177192 76.52770360865293 71.91125966895389 H 0.0 **** 0.06
20833 H 69.13706279703995 74.76415582729055 71.86039933017697 H 0.0 **** 0.06
20834 H 68.69501763953734 75.6473501753998 70.3783514647786 H 0.0 **** 0.06
20835 H 67.50264159033055 75.44955686377014 71.68528569449883 H 0.0 **** 0.06
20836 C 64.55853570924347 51.00296451029419 31.567275676233777 C 0.0 **** -0.24
20837 H 64.79541537138229 51.57705067510631 32.46272069462515 H 0.0 **** 0.06
20838 H 64.50942264972312 51.674258249043135 30.70914958293912 H 0.0 **** 0.06
20839 H 63.5973858956535 50.50743341050412 31.69715094683997 H 0.0 **** 0.06
20840 H 65.3336833240775 50.255427710389654 31.399345320518535 H 0.0 **** 0.06
20841 C 97.68974748277341 9.525306614840147 24.034751402108828 C 0.0 **** -0.24
20842 H 97.91851187259627 10.508658691703118 24.445381705766966 H 0.0 **** 0.06
20843 H 98.48785708499574 8.829174176982931 24.293402550263856 H 0.0 **** 0.06
20844 H 97.60633349408016 9.595794977182209 22.949948547605345 H 0.0 **** 0.06
20845 H 96.74720467904191 9.16922116838623 24.449037373411535 H 0.0 **** 0.06
20846 C 26.269991283325282 23.797709545554056 106.48292196339284 C 0.0 **** -0.24
20847 H 25.949741461715973 23.489169599532516 107.47808419179518 H 0.0 **** 0.06
20848 H 25.394456040829624 23.96245133123105 105.85513308367872 H 0.0 **** 0.06
20849 H 26.891359024734356 23.018381043646983 106.04337121922558 H 0.0 **** 0.06
20850 H 26.843296186191964 24.722306919840662 106.55671174980566 H 0.0 **** 0.06
20851 C 76.4603993589171 54.114475048597946 97.64427304816422 C 0.0 **** -0.24
20852 H 75.60193691302896 54.771483578661105 97.5020276187447 H 0.0 **** 0.06
20853 H 76.48392474188614 53.370430321973096 96.8486118964465 H 0.0 **** 0.06
20854 H 76.3792761228118 53.61413891359898 98.6088410568048 H 0.0 **** 0.06
20855 H 77.37736664032798 54.704523345912854 97.6174813954085 H 0.0 **** 0.06
20856 C 41.185637526117915 30.26770526668247 60.92122013945914 C 0.0 **** -0.24
20857 H 41.76135362646178 31.09061691602767 61.34474828743316 H 0.0 **** 0.06
20858 H 41.8250516167528 29.677842931374016 60.26417617486413 H 0.0 **** 0.06
20859 H 40.346994554710506 30.666859560585635 60.350902232926046 H 0.0 **** 0.06
20860 H 40.81023963440947 29.635583685937377 61.72595204324227 H 0.0 **** 0.06
20861 C 13.909386843896158 46.13735319752038 11.352715672843942 C 0.0 **** -0.24
20862 H 14.344634725748449 45.8975650246349 10.382844755094936 H 0.0 **** 0.06
20863 H 12.940457144140822 45.64718040824215 11.44724914598794 H 0.0 **** 0.06
20864 H 13.779889161134776 47.21675562595186 11.435917157926866 H 0.0 **** 0.06
20865 H 14.573082722350122 45.78873419002838 12.144612966096474 H 0.0 **** 0.06
20866 C 63.2469638516087 7.66497958891199 9.578175724886648 C 0.0 **** -0.24
20867 H 63.447790291455576 7.5093560206137795 10.637701896937472 H 0.0 **** 0.06
20868 H 63.645755030882924 6.827331584902652 9.004993227116131 H 0.0 **** 0.06
20869 H 63.721471353956446 8.588900388096448 9.249734515643866 H 0.0 **** 0.06
20870 H 62.17058795160024 7.733683255119331 9.419555259225888 H 0.0 **** 0.06
20871 C 87.99187665731097 40.83815473515904 22.803693366419793 C 0.0 **** -0.24
20872 H 87.42176216445102 41.23071862773048 21.96082159081473 H 0.0 **** 0.06
20873 H 87.5208753451235 41.14878655990847 23.736874157782523 H 0.0 **** 0.06
20874 H 89.0107948509297 41.22444739115369 22.7635754350367 H 0.0 **** 0.06
20875 H 88.01333185080182 39.74992878187663 22.751812506466848 H 0.0 **** 0.06
20876 C 45.99402464782964 15.673546879717065 70.07010548106523 C 0.0 **** -0.24
20877 H 46.91154332688924 15.091037132746749 70.16082281519446 H 0.0 **** 0.06
20878 H 45.39184223028157 15.546162605753125 70.96919237831617 H 0.0 **** 0.06
20879 H 45.43116506646471 15.33015463442706 69.20232927186457 H 0.0 **** 0.06
20880 H 46.24453447138144 16.727487888387998 69.94592043485729 H 0.0 **** 0.06
20881 C 96.01524813399473 25.10674007436961 76.91217395572805 C 0.0 **** -0.24
20882 H 95.56300748515727 24.140128767752543 76.68727898876374 H 0.0 **** 0.06
20883 H 96.7608279555372 25.343270174467136 76.15363331207419 H 0.0 **** 0.06
20884 H 96.49240406618239 25.06412215238197 77.89134587330143 H 0.0 **** 0.06
20885 H 95.24325009269117 25.8756106435593 76.91672764621211 H 0.0 **** 0.06
20886 C 66.10561211904033 21.36520710486794 79.26844317571539 C 0.0 **** -0.24
20887 H 65.39700549664299 21.105308573116613 78.48221858812275 H 0.0 **** 0.06
20888 H 65.61296455125752 21.301095683413536 80.2379728281112 H 0.0 **** 0.06
20889 H 66.46658233179733 22.38183208042708 79.10969206723308 H 0.0 **** 0.06
20890 H 66.94742868414625 20.672669515056462 79.24197991180176 H 0.0 **** 0.06
20891 C 101.6484017996682 60.01664771661944 62.254770682794046 C 0.0 **** -0.24
20892 H 101.38404256498464 60.02271692201471 63.31230227851549 H 0.0 **** 0.06
20893 H 100.94421208175179 59.38906192293325 61.70785052838828 H 0.0 **** 0.06
20894 H 102.65718256694616 59.62203259327689 62.134521099650456 H 0.0 **** 0.06
20895 H 101.60793217603286 61.03412016845891 61.86402678444718 H 0.0 **** 0.06
20896 C 54.756158596763214 100.06492486434068 19.611065341384915 C 0.0 **** -0.24
20897 H 54.07660279802499 99.3212451585575 20.026076271650027 H 0.0 **** 0.06
20898 H 55.31514057544331 100.53701508659944 20.41912393171245 H 0.0 **** 0.06
20899 H 54.18266469809643 100.82150764916261 19.074749218103108 H 0.0 **** 0.06
20900 H 55.449376309201966 99.57948407534822 18.924033933059462 H 0.0 **** 0.06
20901 C 97.89469831284876 41.48263599393194 13.690832871257726 C 0.0 **** -0.24
20902 H 98.76799775700223 41.069290775522546 14.195308355187592 H 0.0 **** 0.06
20903 H 98.07904250500204 42.529338953534214 13.44711401615092 H 0.0 **** 0.06
20904 H 97.0275414565198 41.40881390526283 14.347143007833779 H 0.0 **** 0.06
20905 H 97.70615278950211 40.92368009142739 12.774712489949422 H 0.0 **** 0.06
20906 C 67.37544227964575 66.45494676843887 52.391945192301534 C 0.0 **** -0.24
20907 H 67.97905946624492 66.30238468328272 51.49700394840306 H 0.0 **** 0.06
20908 H 67.35017281591423 65.53283612407805 52.97397027222115 H 0.0 **** 0.06
20909 H 66.36144415478799 66.73192784426226 52.103759510480984 H 0.0 **** 0.06
20910 H 67.81336592381949 67.2518513526401 52.99350873916944 H 0.0 **** 0.06
20911 C 49.19756698947634 58.71854170339065 32.523895582586576 C 0.0 **** -0.24
20912 H 48.77204792724723 57.95982554748659 33.18137491370511 H 0.0 **** 0.06
20913 H 49.97146281513457 58.26745299449419 31.903183962357062 H 0.0 **** 0.06
20914 H 49.632073821341635 59.517520184636936 33.12454348226265 H 0.0 **** 0.06
20915 H 48.413450020545895 59.12736108591933 31.887151546771406 H 0.0 **** 0.06
20916 C 51.95836213202633 60.167321884820126 82.05682277541186 C 0.0 **** -0.24
20917 H 52.273230124124574 59.43708327816182 81.31032327540893 H 0.0 **** 0.06
20918 H 51.39248504630995 59.663848235073374 82.84070613313267 H 0.0 **** 0.06
20919 H 51.33026116810314 60.9218716333034 81.58303002093976 H 0.0 **** 0.06
20920 H 52.83648707666383 60.64557666387532 82.49036705328177 H 0.0 **** 0.06
20921 C 66.17393088205966 3.090451347186553 21.0219426173621 C 0.0 **** -0.24
20922 H 66.18596691052852 3.3747829283388278 19.969719544045915 H 0.0 **** 0.06
20923 H 65.62349958387864 3.8374340173144015 21.59436117719619 H 0.0 **** 0.06
20924 H 67.19733255491309 3.0293428405714184 21.392763997959378 H 0.0 **** 0.06
20925 H 65.68984420532729 2.119288712760601 21.1298128246151 H 0.0 **** 0.06
20926 C 54.64694580194379 92.69044929595238 74.02857327706431 C 0.0 **** -0.24
20927 H 55.45209743049145 93.33928273218143 73.68455189484388 H 0.0 **** 0.06
20928 H 54.97492215101107 91.65082928545812 73.98323496160134 H 0.0 **** 0.06
20929 H 53.774460439514144 92.82415779613311 73.38899604201197 H 0.0 **** 0.06
20930 H 54.38737614147624 92.9453306790031 75.05608764695054 H 0.0 **** 0.06
20931 C 41.080009376956895 92.09060064928313 75.2362106712153 C 0.0 **** -0.24
20932 H 41.9112616401201 91.81963762430256 74.58512432431633 H 0.0 **** 0.06
20933 H 40.3924846457422 91.24726385181316 75.3157128418153 H 0.0 **** 0.06
20934 H 40.55558061847918 92.9497649139457 74.81730140039588 H 0.0 **** 0.06
20935 H 41.46076377403462 92.34373784982502 76.22570213457652 H 0.0 **** 0.06
20936 C 89.98958868735053 5.30703913720447 4.606082596634392 C 0.0 **** -0.24
20937 H 90.00639748776123 5.294952448668285 5.696449571520475 H 0.0 **** 0.06
20938 H 91.00635008244555 5.202922912476902 4.226367153366368 H 0.0 **** 0.06
20939 H 89.56555494294372 6.249306355163517 4.26041290253436 H 0.0 **** 0.06
20940 H 89.37949643710957 4.479398360314896 4.244295508145355 H 0.0 **** 0.06
20941 C 83.20243344867872 13.243031062745743 65.27223212657873 C 0.0 **** -0.24
20942 H 83.81282042617858 13.960019089032585 65.82010761945156 H 0.0 **** 0.06
20943 H 82.78953587466198 13.721080057913852 64.38296920865395 H 0.0 **** 0.06
20944 H 82.38944642935004 12.896053514984715 65.91002707481698 H 0.0 **** 0.06
20945 H 83.81856083692094 12.393979825969183 64.97503727575281 H 0.0 **** 0.06
20946 C 56.99035833917446 83.78877096778955 34.854130887781224 C 0.0 **** -0.24
20947 H 57.686298427809305 83.14200622095937 35.38902199088167 H 0.0 **** 0.06
20948 H 56.37926789814432 84.33588182292505 35.5712939414 H 0.0 **** 0.06
20949 H 56.3478684943 83.1821094935559 34.216415955403306 H 0.0 **** 0.06
20950 H 57.551525697505156 84.49383797862123 34.239754393121956 H 0.0 **** 0.06
20951 C 46.42281465955652 11.180638959366362 88.03970766759781 C 0.0 **** -0.24
20952 H 46.911781618635885 11.973146069698373 88.60705019478144 H 0.0 **** 0.06
20953 H 47.1085608717522 10.801097327631538 87.28123284420856 H 0.0 **** 0.06
20954 H 45.53088463688241 11.578112194717136 87.55623736793027 H 0.0 **** 0.06
20955 H 46.14124395632818 10.371645881228957 88.71364671429144 H 0.0 **** 0.06
20956 C 57.083316740936205 102.12564322787655 3.1920419611564466 C 0.0 **** -0.24
20957 H 56.219578335021076 101.50440203959494 2.956937685263507 H 0.0 **** 0.06
20958 H 57.08305377205664 102.35984838796121 4.255959025511226 H 0.0 **** 0.06
20959 H 57.03301821278728 103.04963210145618 2.6158594079432227 H 0.0 **** 0.06
20960 H 57.99721470050052 101.58823846185369 2.937258951071767 H 0.0 **** 0.06
20961 C 74.59643697545032 48.524357293655505 17.708546752394714 C 0.0 **** -0.24
20962 H 75.49194608209811 47.90790512744472 17.790777537410367 H 0.0 **** 0.06
20963 H 74.59446662088916 49.26926614581455 18.504890064564645 H 0.0 **** 0.06
20964 H 73.71255774876043 47.89389048473025 17.79682330667837 H 0.0 **** 0.06
20965 H 74.5895786835731 49.026656355343974 16.740257328646884 H 0.0 **** 0.06
20966 C 93.99974495184281 61.86328050460088 34.806651962097845 C 0.0 **** -0.24
20967 H 94.09765000778188 60.964375424912504 35.41583009133755 H 0.0 **** 0.06
20968 H 94.97456207823484 62.13871135974037 34.40573543163398 H 0.0 **** 0.06
20969 H 93.61522531333236 62.67764726965058 35.42005810049168 H 0.0 **** 0.06
20970 H 93.30961478732914 61.67087690277171 33.98494889202997 H 0.0 **** 0.06
20971 C 16.080742782733967 51.313213404947625 70.24763214486042 C 0.0 **** -0.24
20972 H 15.605433701805584 50.60937858622162 69.56512977330318 H 0.0 **** 0.06
20973 H 16.099352352683255 50.889922238509044 71.25198765286608 H 0.0 **** 0.06
20974 H 15.517410520257297 52.246888903959565 70.25766120837112 H 0.0 **** 0.06
20975 H 17.1002996660408 51.50817899476249 69.9164420997852 H 0.0 **** 0.06
20976 C 39.27095537119298 18.969306651358153 102.83604551450415 C 0.0 **** -0.24
20977 H 38.30011441928512 18.55203184447035 102.57010331131556 H 0.0 **** 0.06
20978 H 39.99140670090031 18.739036950013713 102.05115414963825 H 0.0 **** 0.06
20979 H 39.607148491563464 18.5349349910839 103.777184252224 H 0.0 **** 0.06
20980 H 39.184098879224095 20.049619959166364 102.94517269544592 H 0.0 **** 0.06
20981 C 7.929021423666768 59.16128039280508 42.75796131240429 C 0.0 **** -0.24
20982 H 8.323308890068574 58.268951548199 43.24486516922872 H 0.0 **** 0.06
20983 H 6.968758895974389 58.929177986944296 42.29691459188069 H 0.0 **** 0.06
20984 H 8.629112308578982 59.49663113407999 41.993000970749165 H 0.0 **** 0.06
20985 H 7.7952683580188875 59.94984854609848 43.49943225388739 H 0.0 **** 0.06
20986 C 83.59360235381521 71.22183248844493 85.63762161227628 C 0.0 **** -0.24
20987 H 83.06061410515514 70.27109738741677 85.61948295325604 H 0.0 **** 0.06
20988 H 83.83628332547718 71.48147236088886 86.66765013196206 H 0.0 **** 0.06
20989 H 82.96411584048391 71.99907336093025 85.20401456051488 H 0.0 **** 0.06
20990 H 84.51278037794228 71.13396766244557 85.05804827048262 H 0.0 **** 0.06
20991 C 20.00937212967571 52.084223151026556 106.33785565056607 C 0.0 **** -0.24
20992 H 19.49977294719747 53.00847626968462 106.6104020840346 H 0.0 **** 0.06
20993 H 19.796808180676265 51.31900857047116 107.0852745284416 H 0.0 **** 0.06
20994 H 21.083839470725053 52.262048136518445 106.29467106339645 H 0.0 **** 0.06
20995 H 19.656373059353825 51.74810615108774 105.36330206519706 H 0.0 **** 0.06
20996 C 102.00180160220405 75.42129257609068 59.23921085752663 C 0.0 **** -0.24
20997 H 102.57702514351875 74.63988614020582 59.73503091613045 H 0.0 **** 0.06
20998 H 100.98157799744095 75.0743420915557 59.076484563422866 H 0.0 **** 0.06
20999 H 102.46313125995651 75.6574791506103 58.27999159991624 H 0.0 **** 0.06
21000 H 101.98690969818476 76.31384767707965 59.86445026468636 H 0.0 **** 0.06
21001 C 88.3503040826644 73.28615975103313 44.27017837085802 C 0.0 **** -0.24
21002 H 88.16889706628191 74.04345037376795 45.03373791345777 H 0.0 **** 0.06
21003 H 88.63315083983753 72.34864110647085 44.7492297517928 H 0.0 **** 0.06
21004 H 89.15573185858106 73.61713310230384 43.614774348586735 H 0.0 **** 0.06
21005 H 87.4429287489156 73.13648305926938 43.68511632661793 H 0.0 **** 0.06
21006 C 27.26972397934914 25.959419996424458 12.516263480817543 C 0.0 **** -0.24
21007 H 26.53855835470451 26.154500711685387 13.300572117258923 H 0.0 **** 0.06
21008 H 26.834804363429246 25.28910148512358 11.774018380761106 H 0.0 **** 0.06
21009 H 28.154587744414275 25.493998290386344 12.951441031400094 H 0.0 **** 0.06
21010 H 27.550605126029215 26.8976603879575 12.039202273682236 H 0.0 **** 0.06
21011 C 45.49253290867839 44.574516237082435 105.59531523989793 C 0.0 **** -0.24
21012 H 46.53865094942901 44.67768296310584 105.30883778625625 H 0.0 **** 0.06
21013 H 45.337409026205776 45.02594368637688 106.5753527680393 H 0.0 **** 0.06
21014 H 45.23040013039961 43.516741898814075 105.63628617208326 H 0.0 **** 0.06
21015 H 44.862770338297544 45.075702772380225 104.86032213482594 H 0.0 **** 0.06
21016 C 39.308004016347056 27.000761073452338 36.18835927995485 C 0.0 **** -0.24
21017 H 39.77156292513621 27.85866701464346 35.70102237953871 H 0.0 **** 0.06
21018 H 40.03593627898297 26.19259639939321 36.2688095855581 H 0.0 **** 0.06
21019 H 38.455841160621105 26.663749172670663 35.598287126731776 H 0.0 **** 0.06
21020 H 38.97053907849474 27.286849711835202 37.18425454951071 H 0.0 **** 0.06
21021 C 69.87578370087951 96.79327761653394 5.006748693917785 C 0.0 **** -0.24
21022 H 69.47921923888313 97.17021900151158 4.063963176848887 H 0.0 **** 0.06
21023 H 70.61312283733801 96.01548929679022 4.805095304753223 H 0.0 **** 0.06
21024 H 69.06328322102459 96.37943711940858 5.601949171998996 H 0.0 **** 0.06
21025 H 70.34889437636846 97.60885683255876 5.552939597098174 H 0.0 **** 0.06
21026 C 31.83699252220012 40.19663700929132 0.3747085587724257 C 0.0 **** -0.24
21027 H 32.15390851554997 39.45626176752489 -0.35911050257800525 H 0.0 **** 0.06
21028 H 32.3800812941208 40.03934223768911 1.3069068609239878 H 0.0 **** 0.06
21029 H 30.766572951246246 40.09474203245364 0.5559490226110313 H 0.0 **** 0.06
21030 H 32.04814815735054 41.196623016813504 -0.004387731911521087 H 0.0 **** 0.06
21031 C 59.36420906731317 61.87282709918139 23.58748001312688 C 0.0 **** -0.24
21032 H 58.87458003944735 62.68439539071102 24.125141617598757 H 0.0 **** 0.06
21033 H 59.968159557777426 61.289325861641146 24.284090326234292 H 0.0 **** 0.06
21034 H 60.00603242944982 62.2872266927821 22.809954797559072 H 0.0 **** 0.06
21035 H 58.61050869704914 61.23062594492768 23.13355373666886 H 0.0 **** 0.06
21036 C 9.724806971331276 69.65160769025428 15.057282648163508 C 0.0 **** -0.24
21037 H 9.05400650803199 68.86939451535247 15.412012086624056 H 0.0 **** 0.06
21038 H 10.6500077776073 69.20105033780462 14.696962955489514 H 0.0 **** 0.06
21039 H 9.948185209931722 70.33691798203395 15.875790276867363 H 0.0 **** 0.06
21040 H 9.247225628932483 70.19942697812294 14.245718887447943 H 0.0 **** 0.06
21041 C 23.87888826585425 23.88242517286011 83.77846769733915 C 0.0 **** -0.24
21042 H 24.10785051260804 24.826476424808277 83.28339471230359 H 0.0 **** 0.06
21043 H 23.47422068583062 24.082317318363607 84.77083255234436 H 0.0 **** 0.06
21044 H 24.78779206780484 23.28865028104542 83.86794338369117 H 0.0 **** 0.06
21045 H 23.143250951118898 23.334290610964416 83.18999259851361 H 0.0 **** 0.06
21046 C 15.912288739482307 52.916118931910034 9.06451911736093 C 0.0 **** -0.24
21047 H 15.007014684784455 52.81183471941495 9.661991595755637 H 0.0 **** 0.06
21048 H 16.663826471110966 53.46147865840072 9.635736705461682 H 0.0 **** 0.06
21049 H 15.681896976565621 53.46439705852242 8.1503596687958 H 0.0 **** 0.06
21050 H 16.295261287965737 51.92877519171702 8.80919773417537 H 0.0 **** 0.06
21051 C 36.69633880756855 89.65146402036868 18.783811447775804 C 0.0 **** -0.24
21052 H 36.913055452180075 90.56707574086062 18.233007664354773 H 0.0 **** 0.06
21053 H 35.755725795723976 89.22935668716701 18.431158316300497 H 0.0 **** 0.06
21054 H 36.617864780032775 89.87760103571065 19.84729233293143 H 0.0 **** 0.06
21055 H 37.500039014756524 88.93284256938318 18.623349943845938 H 0.0 **** 0.06
21056 C 87.15325476820388 56.03469820501063 80.70180122154117 C 0.0 **** -0.24
21057 H 86.95574418099217 55.06207665844789 81.15307456178398 H 0.0 **** 0.06
21058 H 87.40479866428126 55.90145872518316 79.64933666415932 H 0.0 **** 0.06
21059 H 87.98584555443374 56.512417209202134 81.21713198105412 H 0.0 **** 0.06
21060 H 86.265884846516 56.66167261011187 80.78621925162994 H 0.0 **** 0.06
21061 C 89.16405699266244 48.48635915112075 105.14594212746248 C 0.0 **** -0.24
21062 H 90.10440053117867 48.092608912511054 105.53073876460262 H 0.0 **** 0.06
21063 H 89.37077923457815 49.229408698088065 104.37526448741491 H 0.0 **** 0.06
21064 H 88.60461067307108 48.94947155087414 105.95795836441465 H 0.0 **** 0.06
21065 H 88.57760242562176 47.673334111089616 104.71774119192003 H 0.0 **** 0.06
21066 C 46.34212069703682 79.69109531399204 8.982147152412324 C 0.0 **** -0.24
21067 H 46.14890746050452 80.24580687380978 8.063591509496518 H 0.0 **** 0.06
21068 H 46.59391755314948 78.659620403097 8.736003798425287 H 0.0 **** 0.06
21069 H 45.45174819264059 79.70777547362133 9.610305779637514 H 0.0 **** 0.06
21070 H 47.17279309243207 80.15065844613753 9.51614127817399 H 0.0 **** 0.06
21071 C 63.32257542773681 18.334444564430044 97.2104719725502 C 0.0 **** -0.24
21072 H 63.82998814123626 18.933316102638017 97.96696515805749 H 0.0 **** 0.06
21073 H 64.03514132747632 17.64850313726808 96.75144806882994 H 0.0 **** 0.06
21074 H 62.905935942471075 18.99086769638386 96.44659965808057 H 0.0 **** 0.06
21075 H 62.51847385016879 17.765095289944014 97.67752207625999 H 0.0 **** 0.06
21076 C 103.6984598889652 58.20251805094597 80.49174220191597 C 0.0 **** -0.24
21077 H 103.01437849976872 57.40478351086733 80.20164569682768 H 0.0 **** 0.06
21078 H 103.15712932153926 58.95114536591211 81.07161989825929 H 0.0 **** 0.06
21079 H 104.11674833241172 58.665867328185584 79.59838845570022 H 0.0 **** 0.06
21080 H 104.50439307236924 57.78685232463323 81.09656235340131 H 0.0 **** 0.06
21081 C 23.373784587076962 41.28380496099845 33.93926942930145 C 0.0 **** -0.24
21082 H 24.290138252086628 41.61864633919316 33.45233518595819 H 0.0 **** 0.06
21083 H 22.85695283885944 42.14046718266735 34.3707395273226 H 0.0 **** 0.06
21084 H 23.620749421817017 40.572585379590066 34.72782685257354 H 0.0 **** 0.06
21085 H 22.72849903102642 40.801013574991885 33.205048919428066 H 0.0 **** 0.06
21086 C 17.3735630345499 101.07616967719161 82.11152084038181 C 0.0 **** -0.24
21087 H 17.593527766897612 100.8209968311657 81.07494038640314 H 0.0 **** 0.06
21088 H 17.813157420309317 102.04492633836094 82.34920344468918 H 0.0 **** 0.06
21089 H 17.79341348479229 100.3149447932692 82.76940457125173 H 0.0 **** 0.06
21090 H 16.293902467487793 101.12247802838533 82.25293615187906 H 0.0 **** 0.06
21091 C 89.71518265832718 42.8930281311479 9.214671515360436 C 0.0 **** -0.24
21092 H 89.20580962028654 43.73557388700161 8.749097275696414 H 0.0 **** 0.06
21093 H 90.50060849533453 42.53074618484368 8.551517125635712 H 0.0 **** 0.06
21094 H 88.998432938531 42.09184374181345 9.399747722812748 H 0.0 **** 0.06
21095 H 90.15499249719686 43.21164845555296 10.160033418275361 H 0.0 **** 0.06
21096 C 49.29165849812813 52.152730654067064 38.379777808010545 C 0.0 **** -0.24
21097 H 49.45057863571769 53.22377541571129 38.254541173978765 H 0.0 **** 0.06
21098 H 50.17198018897525 51.707422439244844 38.8445939843148 H 0.0 **** 0.06
21099 H 49.12386960408916 51.69390997940561 37.40587527735849 H 0.0 **** 0.06
21100 H 48.42154288810427 51.98679833636073 39.01459508608215 H 0.0 **** 0.06
21101 C 2.6484980052952 0.10518656792299907 22.18512388093714 C 0.0 **** -0.24
21102 H 1.7231807338615477 -0.38906698999622336 22.47954710120075 H 0.0 **** 0.06
21103 H 2.885240129295364 -0.154824312846074 21.153004578897537 H 0.0 **** 0.06
21104 H 3.4582872587688804 -0.2220541783816259 22.837493853685658 H 0.0 **** 0.06
21105 H 2.527042289015121 1.184686039385241 22.269064705151123 H 0.0 **** 0.06
21106 C 27.96015368120797 95.18075690476132 81.77244863795428 C 0.0 **** -0.24
21107 H 28.038381584309803 95.25611581056077 80.68772510057101 H 0.0 **** 0.06
21108 H 27.6938336499328 94.16006226567546 82.04676195671638 H 0.0 **** 0.06
21109 H 27.19110323645623 95.86662185692649 82.12858823824777 H 0.0 **** 0.06
21110 H 28.9167455465645 95.44114926285704 82.22475771421136 H 0.0 **** 0.06
21111 C 53.08725501248158 85.01001884899932 0.9579844331608172 C 0.0 **** -0.24
21112 H 52.30828073048617 85.31356171573265 0.2580411939040488 H 0.0 **** 0.06
21113 H 54.05985839519543 85.07517518212597 0.47008482649175676 H 0.0 **** 0.06
21114 H 52.90815173330736 83.98337645938844 1.2764732070954494 H 0.0 **** 0.06
21115 H 53.070976800985655 85.66805802284256 1.825952811552753 H 0.0 **** 0.06
21116 C 65.46852216672825 67.68840696249535 11.019887828493268 C 0.0 **** -0.24
21117 H 65.77064224512816 66.67448500919468 10.755345784383948 H 0.0 **** 0.06
21118 H 65.99865613118965 68.00202019367717 11.920153072593251 H 0.0 **** 0.06
21119 H 64.39462210399569 67.71041115974376 11.203480170017755 H 0.0 **** 0.06
21120 H 65.71159657053761 68.3647400526747 10.200301287211062 H 0.0 **** 0.06
21121 C 47.9469099758644 86.20861600944917 59.33456056079439 C 0.0 **** -0.24
21122 H 48.1996604041984 85.15350735567662 59.44050237911995 H 0.0 **** 0.06
21123 H 47.24321896313239 86.49469983379839 60.1168621353782 H 0.0 **** 0.06
21124 H 47.49425695783859 86.37801340388194 58.357586930803166 H 0.0 **** 0.06
21125 H 48.8522433185592 86.80915496333054 59.423668450219566 H 0.0 **** 0.06
21126 C 56.05594580603878 4.0402140918182425 30.07269014557221 C 0.0 **** -0.24
21127 H 55.314090803301724 3.7349765713222354 29.334932797556576 H 0.0 **** 0.06
21128 H 55.56955910392088 4.1924607578998945 31.036745996853938 H 0.0 **** 0.06
21129 H 56.52477847261787 4.970999569980108 29.75130082711479 H 0.0 **** 0.06
21130 H 56.81533057773538 3.264575782124041 30.16661906699653 H 0.0 **** 0.06
21131 C 62.91015939840412 55.418400182465426 47.14010599058624 C 0.0 **** -0.24
21132 H 62.26971418979497 56.2173108093794 47.515066648072704 H 0.0 **** 0.06
21133 H 62.354954397727624 54.81614658989111 46.42032701891133 H 0.0 **** 0.06
21134 H 63.230355155812276 54.78980971010625 47.9703856737182 H 0.0 **** 0.06
21135 H 63.78368029754159 55.85174274242576 46.654119240403325 H 0.0 **** 0.06
21136 C 19.93317695759079 79.73183745811244 82.62481303458429 C 0.0 **** -0.24
21137 H 19.516356952654732 80.68210753979858 82.95859824317051 H 0.0 **** 0.06
21138 H 19.5385225158188 79.48936425268559 81.63822937677907 H 0.0 **** 0.06
21139 H 19.658884771862844 78.94771863824846 83.33028462514073 H 0.0 **** 0.06
21140 H 21.019046233726346 79.81010426418314 82.57323862182972 H 0.0 **** 0.06
21141 C 4.961985253182377 101.22435404559849 74.40096800389188 C 0.0 **** -0.24
21142 H 4.222400274198378 100.54979028221703 74.83413606230584 H 0.0 **** 0.06
21143 H 5.725059924387807 101.45186055346318 75.14494482918997 H 0.0 **** 0.06
21144 H 4.471959937600133 102.14668494075863 74.08890771851131 H 0.0 **** 0.06
21145 H 5.426074170932139 100.74860932294035 73.53755437141288 H 0.0 **** 0.06
21146 C 96.73321353460469 105.9410453543846 103.34306069775046 C 0.0 **** -0.24
21147 H 96.53352854354625 106.38284159324563 104.31921575065365 H 0.0 **** 0.06
21148 H 97.56122295323647 105.23634622729813 103.42725870768955 H 0.0 **** 0.06
21149 H 96.99483100023471 106.72703555957186 102.63580662077054 H 0.0 **** 0.06
21150 H 95.84416549252731 105.4171967178958 102.99272247938558 H 0.0 **** 0.06
21151 C 73.48263754496621 69.05257304008211 14.194318499153795 C 0.0 **** -0.24
21152 H 73.40361050390237 68.50431753719394 15.133492270748889 H 0.0 **** 0.06
21153 H 74.53408467458166 69.22948209327808 13.964653752195943 H 0.0 **** 0.06
21154 H 72.96403071839822 70.00670353337618 14.286652981089446 H 0.0 **** 0.06
21155 H 73.02834506749547 68.46881031690525 13.3933764530086 H 0.0 **** 0.06
21156 C 43.30087037435726 81.0401532582749 71.1880215645675 C 0.0 **** -0.24
21157 H 43.33765580248712 82.1272753659911 71.10749123012573 H 0.0 **** 0.06
21158 H 44.30136154503754 80.63207919489963 71.0435338612549 H 0.0 **** 0.06
21159 H 42.63129491918244 80.64132895007548 70.42654369318761 H 0.0 **** 0.06
21160 H 42.93373077989716 80.76195812243421 72.1757703582257 H 0.0 **** 0.06
21161 C 17.968555971343108 71.1498819208002 20.126824174397235 C 0.0 **** -0.24
21162 H 17.1247069220006 70.93721032395601 19.471854558393115 H 0.0 **** 0.06
21163 H 18.29814717800383 72.17743909700172 19.97262429875025 H 0.0 **** 0.06
21164 H 18.78716019923843 70.4670328596218 19.8990326175337 H 0.0 **** 0.06
21165 H 17.663884237680577 71.0178809175399 21.16548611245011 H 0.0 **** 0.06
21166 C 4.455123297990568 57.39513240864903 69.6917290540696 C 0.0 **** -0.24
21167 H 3.40005332723878 57.16471996819811 69.83877041320861 H 0.0 **** 0.06
21168 H 5.064331481399009 56.621272150228606 70.16076048547552 H 0.0 **** 0.06
21169 H 4.682297345070168 58.360656056168864 70.14400967432715 H 0.0 **** 0.06
21170 H 4.674123023946436 57.433292186519 68.6246228456516 H 0.0 **** 0.06
21171 C 72.45714972942375 46.69805254193841 7.136452209012063 C 0.0 **** -0.24
21172 H 71.56048635028 46.73017415599463 6.517900939910106 H 0.0 **** 0.06
21173 H 72.91774477930869 45.71344745338672 7.058962185561086 H 0.0 **** 0.06
21174 H 72.18886139692748 46.89340530598349 8.17494265122771 H 0.0 **** 0.06
21175 H 73.1620437711897 47.45730666741184 6.794453127792579 H 0.0 **** 0.06
21176 C 63.21904621122391 68.91296767738324 52.519025776588734 C 0.0 **** -0.24
21177 H 63.398586960125954 69.92554193807129 52.15777352305435 H 0.0 **** 0.06
21178 H 64.14937770550165 68.49146577433646 52.89835823812903 H 0.0 **** 0.06
21179 H 62.84804920395953 68.29739118893741 51.69913093766467 H 0.0 **** 0.06
21180 H 62.47797734182814 68.9380349356419 53.317394882518656 H 0.0 **** 0.06
21181 C 100.34478709128894 2.459929057177078 69.96234867777184 C 0.0 **** -0.24
21182 H 99.76189311485714 3.1780051794104907 70.54033229766674 H 0.0 **** 0.06
21183 H 100.6856062541199 1.6580771298659442 70.61740172717606 H 0.0 **** 0.06
21184 H 101.20653918949088 2.9622497716767384 69.52337498034547 H 0.0 **** 0.06
21185 H 99.72371723524788 2.0426794618727513 69.16982946184197 H 0.0 **** 0.06
21186 C 15.9510636885163 76.26603526618378 33.44972342949811 C 0.0 **** -0.24
21187 H 15.756662404282892 76.0966904338812 32.39107800530911 H 0.0 **** 0.06
21188 H 16.578696994732272 77.14997219503117 33.56646537820316 H 0.0 **** 0.06
21189 H 16.462597514144736 75.40021698531656 33.86869777148206 H 0.0 **** 0.06
21190 H 15.006976046181123 76.41961322263667 33.972555188779495 H 0.0 **** 0.06
21191 C 86.39581167936184 98.22468363572132 85.21996441257863 C 0.0 **** -0.24
21192 H 85.87553266900204 97.31178675664376 84.9314358857867 H 0.0 **** 0.06
21193 H 85.83906708851418 98.72522993668187 86.01194708416199 H 0.0 **** 0.06
21194 H 86.47437966390122 98.88586471616557 84.35672494582292 H 0.0 **** 0.06
21195 H 87.3942861547441 97.97496855125351 85.5786464436107 H 0.0 **** 0.06
21196 C 28.07355926360723 36.853145082333306 3.5739819842238063 C 0.0 **** -0.24
21197 H 28.830585931287416 36.29798416566885 3.0204057278757404 H 0.0 **** 0.06
21198 H 27.292794352978635 37.184964676194916 2.889247262025947 H 0.0 **** 0.06
21199 H 28.5328599430744 37.71983653395121 4.04999936677072 H 0.0 **** 0.06
21200 H 27.637096452681487 36.20833568770501 4.337710884877808 H 0.0 **** 0.06
21201 C 43.21861168298981 57.671064676890005 97.23967427092623 C 0.0 **** -0.24
21202 H 42.33010114212949 58.280638082698474 97.40594217334498 H 0.0 **** 0.06
21203 H 43.47288012987277 57.14184877336746 98.15820941269729 H 0.0 **** 0.06
21204 H 44.05005006281936 58.31445676276004 96.94846877468092 H 0.0 **** 0.06
21205 H 43.02137290609544 56.95029879347723 96.44638674709213 H 0.0 **** 0.06
21206 C 48.738660770939426 44.45751691377852 4.736485439627515 C 0.0 **** -0.24
21207 H 49.41859596851886 43.96621942370923 4.041239035629715 H 0.0 **** 0.06
21208 H 49.25530612232081 44.64493993864388 5.679157183444261 H 0.0 **** 0.06
21209 H 47.876744094773386 43.8156141838911 4.916230249336081 H 0.0 **** 0.06
21210 H 48.405214493843935 45.4043464941959 4.311161968774428 H 0.0 **** 0.06
21211 C 44.23339422925864 106.55095472738891 61.807647130051095 C 0.0 **** -0.24
21212 H 45.013225434388744 107.3103514261941 61.74219715891317 H 0.0 **** 0.06
21213 H 43.258688091615475 107.03557923226263 61.85846753780601 H 0.0 **** 0.06
21214 H 44.38811452188465 105.94824466278287 62.70304701549192 H 0.0 **** 0.06
21215 H 44.27664946551908 105.9102653211048 60.926891332079194 H 0.0 **** 0.06
21216 C 50.724752312263305 94.05418081998737 33.120957436504064 C 0.0 **** -0.24
21217 H 50.291841580009915 93.66354239229476 32.20014170293254 H 0.0 **** 0.06
21218 H 50.28563322120692 93.539855412153 33.975922065037 H 0.0 **** 0.06
21219 H 50.518365425193444 95.12276345935025 33.19359612043192 H 0.0 **** 0.06
21220 H 51.802308939856445 93.89228635831904 33.111870441140226 H 0.0 **** 0.06
21221 C 49.5567167512473 5.237151924226353 61.908542274152666 C 0.0 **** -0.24
21222 H 48.96080688007635 4.32960651104456 61.816888513967115 H 0.0 **** 0.06
21223 H 49.42932166279841 5.846885855449273 61.01359771164579 H 0.0 **** 0.06
21224 H 50.60739402398868 4.972689724282674 62.021726437450184 H 0.0 **** 0.06
21225 H 49.22765383502949 5.800797000776171 62.782467675301575 H 0.0 **** 0.06
21226 C 38.06823134958993 53.017361231589575 47.53972509433473 C 0.0 **** -0.24
21227 H 38.32158326093812 52.137985975936346 46.94793319023421 H 0.0 **** 0.06
21228 H 38.07983284693771 53.901154143354404 46.90049173958718 H 0.0 **** 0.06
21229 H 38.796499670677655 53.13819223071576 48.34057011535526 H 0.0 **** 0.06
21230 H 37.073251732699134 52.89301040176426 47.967879471645404 H 0.0 **** 0.06
21231 C 97.01345781976713 21.084983445592286 16.460303819886143 C 0.0 **** -0.24
21232 H 96.2354596263125 20.380576005619133 16.752778821516028 H 0.0 **** 0.06
21233 H 97.72516034621171 21.20110990836139 17.27770143898616 H 0.0 **** 0.06
21234 H 96.5625641267824 22.050325290030685 16.231317605735743 H 0.0 **** 0.06
21235 H 97.5315869101757 20.70803558622984 15.578366590740053 H 0.0 **** 0.06
21236 C 80.72761836211319 5.302892425143824 95.12605268793115 C 0.0 **** -0.24
21237 H 80.3806738316273 4.26934250596716 95.13132417768063 H 0.0 **** 0.06
21238 H 81.09609488515565 5.556999479992967 94.13184023769756 H 0.0 **** 0.06
21239 H 81.53274016146759 5.419650704447051 95.85162977515498 H 0.0 **** 0.06
21240 H 79.90297298077382 5.965458075590234 95.38844066581666 H 0.0 **** 0.06
21241 C 13.215863636109447 62.72436505037861 9.283101269949894 C 0.0 **** -0.24
21242 H 12.874625624346265 63.3244270489634 8.439095369791312 H 0.0 **** 0.06
21243 H 12.566897122123265 62.902539176777424 10.140875819758978 H 0.0 **** 0.06
21244 H 14.238329536103606 63.00201003150643 9.536321308448784 H 0.0 **** 0.06
21245 H 13.18180121110872 61.667966690904706 9.014892378795723 H 0.0 **** 0.06
21246 C 3.401047775140678 99.28884857422356 68.12375021121257 C 0.0 **** -0.24
21247 H 4.014656138186686 98.62774911559045 67.51100553985013 H 0.0 **** 0.06
21248 H 3.3240126801681873 98.881326564432 69.13258874608417 H 0.0 **** 0.06
21249 H 2.4059512279826443 99.36910394589353 67.68655159442217 H 0.0 **** 0.06
21250 H 3.860804989742463 100.27673473787624 68.16435781315559 H 0.0 **** 0.06
21251 C 86.11663643863992 43.90533799051151 34.902405262930955 C 0.0 **** -0.24
21252 H 85.41526184941945 43.17639495040452 35.309892064745526 H 0.0 **** 0.06
21253 H 86.77405545975671 43.4139074088803 34.18416575619736 H 0.0 **** 0.06
21254 H 86.71223384436406 44.3284768085113 35.71104916426415 H 0.0 **** 0.06
21255 H 85.56364605600564 44.701073507625665 34.403123439948985 H 0.0 **** 0.06
21256 C 53.6743160782477 59.30611409285885 61.94665490916091 C 0.0 **** -0.24
21257 H 54.321138626344805 60.16195225783625 61.75408719240019 H 0.0 **** 0.06
21258 H 54.25568847906129 58.3869378297839 61.87109130264875 H 0.0 **** 0.06
21259 H 52.86792016161451 59.28831051314887 61.21353188842656 H 0.0 **** 0.06
21260 H 53.25225740057991 59.38896490118347 62.94801693459985 H 0.0 **** 0.06
21261 C 99.94590535618659 14.680820614634115 81.64201237486432 C 0.0 **** -0.24
21262 H 99.32397558546666 14.090407001820864 80.96792342624991 H 0.0 **** 0.06
21263 H 100.8545464214888 14.125086989195069 81.87611344942701 H 0.0 **** 0.06
21264 H 99.39532324214616 14.88228382620457 82.56017606135822 H 0.0 **** 0.06
21265 H 100.20923549630493 15.622036461154266 81.16125194114801 H 0.0 **** 0.06
21266 C 70.04961114064932 64.7904275664518 91.90528220245446 C 0.0 **** -0.24
21267 H 69.592546219736 64.14042935536051 92.65288690613707 H 0.0 **** 0.06
21268 H 69.29804067737369 65.08423945429655 91.17264169487899 H 0.0 **** 0.06
21269 H 70.85654369959761 64.25681533822546 91.40437753894977 H 0.0 **** 0.06
21270 H 70.44851633317012 65.67914261467337 92.39322263747488 H 0.0 **** 0.06
21271 C 26.23801185231963 67.50732977648698 25.047528651125106 C 0.0 **** -0.24
21272 H 27.221413696913267 67.10922981823742 24.797732862467342 H 0.0 **** 0.06
21273 H 26.302302460880334 68.58996771102534 25.15798924657082 H 0.0 **** 0.06
21274 H 25.8948896755804 67.06611278134474 25.983840291298975 H 0.0 **** 0.06
21275 H 25.534454860042544 67.2635273045216 24.251413316201536 H 0.0 **** 0.06
21276 C 47.38001354769875 85.26398152961264 27.300811077206248 C 0.0 **** -0.24
21277 H 48.22442995047058 85.95104602108356 27.35333744384863 H 0.0 **** 0.06
21278 H 47.09402311194731 84.96334039636602 28.309974196465447 H 0.0 **** 0.06
21279 H 47.66349383385199 84.38253589889436 26.72647738358748 H 0.0 **** 0.06
21280 H 46.53811152909054 85.7587336640265 26.81718726190067 H 0.0 **** 0.06
21281 C 61.87011281486221 68.34033697166763 6.311753710880211 C 0.0 **** -0.24
21282 H 60.86143757532625 67.94899627889356 6.439426628962451 H 0.0 **** 0.06
21283 H 62.267221924368485 68.64220863394982 7.281196636872409 H 0.0 **** 0.06
21284 H 61.84290760135249 69.20303965558197 5.645976218133029 H 0.0 **** 0.06
21285 H 62.50836244634317 67.56820378368658 5.882290732203884 H 0.0 **** 0.06
21286 C 27.92274707618361 105.76342053378832 25.533983185414456 C 0.0 **** -0.24
21287 H 28.950975285079693 105.41494169057398 25.62315092770362 H 0.0 **** 0.06
21288 H 27.28832099139632 105.20468231560346 26.22222650414588 H 0.0 **** 0.06
21289 H 27.574491495560864 105.61050885137809 24.512543137899314 H 0.0 **** 0.06
21290 H 27.87619232657633 106.82492330206566 25.777702792979028 H 0.0 **** 0.06
21291 C 40.11257330536097 79.08934472654977 81.19578284121727 C 0.0 **** -0.24
21292 H 39.45991414225389 78.29348455968812 80.83716561841285 H 0.0 **** 0.06
21293 H 40.54503728485457 78.80088459420818 82.15400117762422 H 0.0 **** 0.06
21294 H 39.533853450171364 80.00522060458155 81.31884968814413 H 0.0 **** 0.06
21295 H 40.91044594399281 79.25870321506449 80.47283564087795 H 0.0 **** 0.06
21296 C 69.79730305580435 63.06527261112282 50.59721898929952 C 0.0 **** -0.24
21297 H 69.05803107033671 63.34472154155573 49.84539918747513 H 0.0 **** 0.06
21298 H 69.615526407218 62.03961078411869 50.92079718504541 H 0.0 **** 0.06
21299 H 69.71673010315504 63.73616680028404 51.45187485222239 H 0.0 **** 0.06
21300 H 70.79661141862948 63.13928050228863 50.16817197710479 H 0.0 **** 0.06
21301 C 34.4485501998798 70.52476704422139 99.04508717906504 C 0.0 **** -0.24
21302 H 34.20448961612028 70.47783224851452 100.106541031007 H 0.0 **** 0.06
21303 H 34.87614478605637 69.57313665913341 98.727795146718 H 0.0 **** 0.06
21304 H 35.170841839543606 71.32300418933113 98.87343938229134 H 0.0 **** 0.06
21305 H 33.54272455779865 70.72509507990668 98.47257315624387 H 0.0 **** 0.06
21306 C 66.36235393434808 59.49588074008551 87.71825894564363 C 0.0 **** -0.24
21307 H 66.00936597114801 58.91627965903356 86.86545311854033 H 0.0 **** 0.06
21308 H 66.74958652625705 60.45408633499943 87.36968221886808 H 0.0 **** 0.06
21309 H 67.15441571922989 58.94668234576545 88.2272844451948 H 0.0 **** 0.06
21310 H 65.53613828647428 59.66576518312124 88.4082731947265 H 0.0 **** 0.06
21311 C 47.85810220650899 45.09048919541909 53.14351068284178 C 0.0 **** -0.24
21312 H 48.794996264691804 45.3381795217056 53.64260460034484 H 0.0 **** 0.06
21313 H 48.069687434498434 44.71525217801072 52.14165808213603 H 0.0 **** 0.06
21314 H 47.23729161618223 45.98331764997555 53.07350897688991 H 0.0 **** 0.06
21315 H 47.33346843236785 44.32553471305492 53.71544487720672 H 0.0 **** 0.06
21316 C 90.68421044615361 15.307922361250075 94.77513696919087 C 0.0 **** -0.24
21317 H 89.8588406584398 15.445399735365974 94.07608802616906 H 0.0 **** 0.06
21318 H 90.350645745594 15.555977912402579 95.78334170796373 H 0.0 **** 0.06
21319 H 91.51056417637707 15.960263977010403 94.49513951101378 H 0.0 **** 0.06
21320 H 91.01514974028561 14.269846651120599 94.74748374205763 H 0.0 **** 0.06
21321 C 73.36515658910383 85.79702528906665 84.9097780965424 C 0.0 **** -0.24
21322 H 73.36405504456977 84.88560529879962 84.31191515541781 H 0.0 **** 0.06
21323 H 74.32598283960078 86.30114030915492 84.80052278432188 H 0.0 **** 0.06
21324 H 73.20334802558202 85.5441415107797 85.95703949410532 H 0.0 **** 0.06
21325 H 72.56796296885793 86.45663109381162 84.56678213744638 H 0.0 **** 0.06
21326 C 82.36252668134719 85.44413830125704 84.8205058211644 C 0.0 **** -0.24
21327 H 81.34184201804788 85.29381716282195 84.46810959168818 H 0.0 **** 0.06
21328 H 82.35159265744227 86.08834783282583 85.70041620983216 H 0.0 **** 0.06
21329 H 82.9531947377784 85.9134487740614 84.03358800632805 H 0.0 **** 0.06
21330 H 82.80302230437245 84.48147335073027 85.08062218174888 H 0.0 **** 0.06
21331 C 71.94130513037179 69.41169246372249 101.09316166211502 C 0.0 **** -0.24
21332 H 71.62620543665263 69.4098178303575 100.0490307122719 H 0.0 **** 0.06
21333 H 71.06756761471233 69.52271723489997 101.73655659120323 H 0.0 **** 0.06
21334 H 72.62641178924596 70.24203425530527 101.26365821168577 H 0.0 **** 0.06
21335 H 72.44382594761791 68.47227758984559 101.3218102869577 H 0.0 **** 0.06
21336 C 50.839396611714086 19.993433212583696 26.993767457185506 C 0.0 **** -0.24
21337 H 51.52710100017166 20.379932340537607 26.242700397587573 H 0.0 **** 0.06
21338 H 51.2896946811881 19.13341323396648 27.48986322537166 H 0.0 **** 0.06
21339 H 49.90895505440844 19.69084095902609 26.51369962082937 H 0.0 **** 0.06
21340 H 50.63151494154216 20.77018310843073 27.730385110046207 H 0.0 **** 0.06
21341 C 25.090043757735486 90.531995001226 40.7758055487204 C 0.0 **** -0.24
21342 H 26.162748973026197 90.33685691772638 40.74714502655692 H 0.0 **** 0.06
21343 H 24.760660892475812 90.88585261253985 39.79872446725406 H 0.0 **** 0.06
21344 H 24.87973735622967 91.29141522125263 41.5279071277636 H 0.0 **** 0.06
21345 H 24.560518967308667 89.61373346771069 41.02810481678452 H 0.0 **** 0.06
21346 C 49.212423764434185 39.71332330344438 79.13608385023016 C 0.0 **** -0.24
21347 H 49.247704394675104 39.15999104081121 78.19820734326743 H 0.0 **** 0.06
21348 H 49.85373548744488 40.5917857770398 79.06384350156645 H 0.0 **** 0.06
21349 H 49.561374684572904 39.0742991527282 79.9474562142635 H 0.0 **** 0.06
21350 H 48.18728771585005 40.02635454508197 79.33452839855289 H 0.0 **** 0.06
21351 C 24.515470733448893 18.135639008968486 72.44814257003318 C 0.0 **** -0.24
21352 H 24.799812690949608 19.110530512268856 72.84416771461113 H 0.0 **** 0.06
21353 H 24.79955200633924 17.357879904079166 73.15819918059927 H 0.0 **** 0.06
21354 H 25.025619646908183 17.966222159123703 71.49996815616495 H 0.0 **** 0.06
21355 H 23.437520201494948 18.10850254113303 72.2913658729336 H 0.0 **** 0.06
21356 C 41.42055128207022 54.6893078956663 29.16292187206949 C 0.0 **** -0.24
21357 H 42.32246441523989 54.07913346306324 29.210340907942765 H 0.0 **** 0.06
21358 H 40.87045682933493 54.45366890492397 28.252070593585387 H 0.0 **** 0.06
21359 H 41.69477462982198 55.744684727394 29.159042600401904 H 0.0 **** 0.06
21360 H 40.79450925388406 54.47974448728371 30.03023338634813 H 0.0 **** 0.06
21361 C 23.75541773730166 79.89661200360072 60.15630445501057 C 0.0 **** -0.24
21362 H 24.604119833972685 79.33102857361709 60.541774133050325 H 0.0 **** 0.06
21363 H 23.241718216826946 79.30648363563574 59.396542598946155 H 0.0 **** 0.06
21364 H 24.109495709196445 80.82774649660394 59.715676515724255 H 0.0 **** 0.06
21365 H 23.066964877654133 80.11836028717315 60.97200114151937 H 0.0 **** 0.06
21366 C 25.991946492403883 76.927613441739 1.924233702035739 C 0.0 **** -0.24
21367 H 26.103741428163218 77.73686758513429 1.202908316025785 H 0.0 **** 0.06
21368 H 25.24748279993365 77.20674634918228 2.6701126165217364 H 0.0 **** 0.06
21369 H 26.947687194590245 76.74487199022664 2.416108696674974 H 0.0 **** 0.06
21370 H 25.669813734700256 76.02351638124108 1.4086537883821757 H 0.0 **** 0.06
21371 C 56.43813499914208 98.1030668062557 4.143625681227988 C 0.0 **** -0.24
21372 H 56.858631587237255 97.18680729028979 3.7293228678725256 H 0.0 **** 0.06
21373 H 56.33449694290147 97.99964660760433 5.223462749785554 H 0.0 **** 0.06
21374 H 55.459032290440945 98.28689639407084 3.700327458026223 H 0.0 **** 0.06
21375 H 57.100736908326695 98.94000376658357 3.9205584377281326 H 0.0 **** 0.06
21376 C 16.987110750969027 6.687699833724395 55.850137696957674 C 0.0 **** -0.24
21377 H 17.44595266907943 5.699531538491982 55.80978616000723 H 0.0 **** 0.06
21378 H 15.9327372305073 6.608697687417788 55.58466667762904 H 0.0 **** 0.06
21379 H 17.490965461581744 7.350071728077637 55.147313009852056 H 0.0 **** 0.06
21380 H 17.07954990122917 7.089598109618464 56.85887327387529 H 0.0 **** 0.06
21381 C 47.538394589164476 48.26699201209081 26.06512225177562 C 0.0 **** -0.24
21382 H 47.1267140417226 48.492499756416635 25.08168030468613 H 0.0 **** 0.06
21383 H 47.71917664762861 49.19745098730252 26.60448549434858 H 0.0 **** 0.06
21384 H 48.47580639987192 47.72439323822121 25.95138886914657 H 0.0 **** 0.06
21385 H 46.8284914301105 47.65501967406988 26.623683956745992 H 0.0 **** 0.06
21386 C 76.14969395641734 65.25764999126545 20.42899365140695 C 0.0 **** -0.24
21387 H 75.14957527487394 65.06873687132855 20.817331262371525 H 0.0 **** 0.06
21388 H 76.87943904237581 65.13723722171261 21.229863551155475 H 0.0 **** 0.06
21389 H 76.20151063713696 66.27493157652805 20.0405828774841 H 0.0 **** 0.06
21390 H 76.36797114922446 64.55107991182712 19.628153153454342 H 0.0 **** 0.06
21391 C 79.90742072700101 0.24196760068696221 34.3425900091068 C 0.0 **** -0.24
21392 H 79.43621209657624 1.2039154887202415 34.544524149800736 H 0.0 **** 0.06
21393 H 80.98609286811171 0.3762246917844152 34.261737350293544 H 0.0 **** 0.06
21394 H 79.52012801174476 -0.16187603229465708 33.406486148038795 H 0.0 **** 0.06
21395 H 79.68653202117287 -0.4481230824297313 35.15578780382506 H 0.0 **** 0.06
21396 C 14.42605794285683 105.63107348876284 93.2836274636988 C 0.0 **** -0.24
21397 H 15.08611144073619 105.4796466687377 94.13782592567227 H 0.0 **** 0.06
21398 H 13.967290642309479 106.61801591759709 93.3502153959268 H 0.0 **** 0.06
21399 H 13.648885876291686 104.86728081351825 93.28367212776494 H 0.0 **** 0.06
21400 H 15.00407934714677 105.56040367747434 92.3612697123132 H 0.0 **** 0.06
21401 C 94.42845139034316 32.15102085341306 106.80807377500645 C 0.0 **** -0.24
21402 H 95.04968148399675 32.74432957184632 106.13739529280674 H 0.0 **** 0.06
21403 H 95.05802770475205 31.67772267109575 107.56259035833918 H 0.0 **** 0.06
21404 H 93.90579273143507 31.384646304329635 106.2369883026457 H 0.0 **** 0.06
21405 H 93.70146832656033 32.799727354188235 107.29639661229129 H 0.0 **** 0.06
21406 C 56.244005159332374 27.845773600505936 45.50118925873276 C 0.0 **** -0.24
21407 H 55.70319960692089 26.899966794238708 45.46021884906474 H 0.0 **** 0.06
21408 H 56.9412933003463 27.9012500865245 44.66526563000796 H 0.0 **** 0.06
21409 H 56.79547055081704 27.908628398676257 46.43967630540673 H 0.0 **** 0.06
21410 H 55.535306710417046 28.671171967258545 45.43994618263242 H 0.0 **** 0.06
21411 C 87.33800307721577 84.00192186158554 35.28234347183667 C 0.0 **** -0.24
21412 H 88.17828616129532 83.66678001111416 35.890150985113394 H 0.0 **** 0.06
21413 H 86.52518517503847 83.27852042210105 35.35671542558515 H 0.0 **** 0.06
21414 H 87.6543468347329 84.08768541941438 34.24171046746244 H 0.0 **** 0.06
21415 H 86.99561945746979 84.97300255215322 35.63904142096709 H 0.0 **** 0.06
21416 C 3.58916493533863 70.94634028690024 56.02876371108394 C 0.0 **** -0.24
21417 H 3.6647947420965465 70.01720252839857 55.463863838070296 H 0.0 **** 0.06
21418 H 2.541900873277328 71.15159811018225 56.2512315302389 H 0.0 **** 0.06
21419 H 4.002375078888306 71.76483336027803 55.43868642083589 H 0.0 **** 0.06
21420 H 4.146804282528038 70.85096513371963 56.96037663465276 H 0.0 **** 0.06
21421 C 53.30524544248368 63.431905079445244 73.5801225405106 C 0.0 **** -0.24
21422 H 53.39901726557028 63.02526082763404 74.58718163261018 H 0.0 **** 0.06
21423 H 53.88954982814474 62.82531773124305 72.88821800903996 H 0.0 **** 0.06
21424 H 53.675447929659924 64.45673184118044 73.56701124528868 H 0.0 **** 0.06
21425 H 52.25727525337095 63.419692201446196 73.27931351261896 H 0.0 **** 0.06
21426 C 82.24165625346049 73.50017582801985 92.06639497241059 C 0.0 **** -0.24
21427 H 81.66245710068827 72.74885555466153 92.60255713470912 H 0.0 **** 0.06
21428 H 83.14811925569705 73.7286223188782 92.62847842872208 H 0.0 **** 0.06
21429 H 81.6457225203699 74.40618444427776 91.95370909396058 H 0.0 **** 0.06
21430 H 82.51064214023631 73.1171000415415 91.08221245682347 H 0.0 **** 0.06
21431 C 101.38976827919439 25.62430479543238 52.21156733078017 C 0.0 **** -0.24
21432 H 101.29417228040796 26.418144296080982 51.46938470231626 H 0.0 **** 0.06
21433 H 102.43649037569966 25.519392820016407 52.49676731569055 H 0.0 **** 0.06
21434 H 101.03280510122761 24.686074622569862 51.78663186835372 H 0.0 **** 0.06
21435 H 100.79637760449151 25.875031956197603 53.09011274575982 H 0.0 **** 0.06
21436 C 28.498990727272087 36.183698439561994 70.69879067666201 C 0.0 **** -0.24
21437 H 28.196070611896204 36.30573946804071 71.73882245905355 H 0.0 **** 0.06
21438 H 27.61403007560956 36.047980991620875 70.07593419873884 H 0.0 **** 0.06
21439 H 29.14524927117656 35.31140314923783 70.60862159848121 H 0.0 **** 0.06
21440 H 29.039434966356986 37.07221378643294 70.37216211735323 H 0.0 **** 0.06
21441 C 101.16895234303865 29.5801029101371 12.081613591631964 C 0.0 **** -0.24
21442 H 100.20273810376875 29.614704350869886 12.585170442628026 H 0.0 **** 0.06
21443 H 101.16749426574586 28.774617830630746 11.346733055253083 H 0.0 **** 0.06
21444 H 101.95465166173449 29.400239337706736 12.81563634319724 H 0.0 **** 0.06
21445 H 101.35188368526747 30.53009520569421 11.58049941113677 H 0.0 **** 0.06
21446 C 20.792302480993612 88.24805791711971 48.739425853857966 C 0.0 **** -0.24
21447 H 20.146669113863027 87.37217637933985 48.664975460185914 H 0.0 **** 0.06
21448 H 20.418532755417345 89.03055460651491 48.078717256384195 H 0.0 **** 0.06
21449 H 21.806646667401083 87.97760021839612 48.446045192451386 H 0.0 **** 0.06
21450 H 20.79524338122343 88.6100778657247 49.76687344440827 H 0.0 **** 0.06
21451 C 90.16768543176015 91.72776008154332 27.533911830422795 C 0.0 **** -0.24
21452 H 90.4557791445237 91.03695110036725 26.7420768534744 H 0.0 **** 0.06
21453 H 89.37063995839027 91.28362923685388 28.131184018876894 H 0.0 **** 0.06
21454 H 89.81365157030511 92.65870171241329 27.091632066973006 H 0.0 **** 0.06
21455 H 91.02869806137754 91.93131679851636 28.16979906660113 H 0.0 **** 0.06
21456 C 15.1647598418852 93.23127239007954 98.68155872954135 C 0.0 **** -0.24
21457 H 15.988346664472559 93.10199965420784 99.38338134800398 H 0.0 **** 0.06
21458 H 15.563545311340775 93.43533060040875 97.6877427936968 H 0.0 **** 0.06
21459 H 14.542722569193288 94.06674175668235 99.00333084354293 H 0.0 **** 0.06
21460 H 14.565661717932826 92.32224669930065 98.65422118133014 H 0.0 **** 0.06
21461 C 34.298968973117084 47.33139695262861 14.487883861115549 C 0.0 **** -0.24
21462 H 35.30643312241518 47.26452483237057 14.898070156041456 H 0.0 **** 0.06
21463 H 33.66728405205783 46.572823409713635 14.950637651704511 H 0.0 **** 0.06
21464 H 34.333122793668544 47.1677471566058 13.410496281772183 H 0.0 **** 0.06
21465 H 33.88903592432662 48.32049241182449 14.69233135494423 H 0.0 **** 0.06
21466 C 55.32160577398548 10.916393520500264 61.698425862599834 C 0.0 **** -0.24
21467 H 54.88504708583986 9.918095661703262 61.712971362127945 H 0.0 **** 0.06
21468 H 54.583841621727856 11.629610180093778 61.328903434732894 H 0.0 **** 0.06
21469 H 56.1927177101407 10.921257456342005 61.042000604006034 H 0.0 **** 0.06
21470 H 55.6248962616844 11.196421178289654 62.706835035894926 H 0.0 **** 0.06
21471 C 41.59116667230512 57.746527678547984 59.04602232174807 C 0.0 **** -0.24
21472 H 41.78760715603249 56.77499366020892 59.49893894953368 H 0.0 **** 0.06
21473 H 42.373877452831834 58.44758675539055 59.33642330008422 H 0.0 **** 0.06
21474 H 40.62485740081104 58.11822652971158 59.387586495968606 H 0.0 **** 0.06
21475 H 41.57853455498599 57.64532176345076 57.960162955326155 H 0.0 **** 0.06
21476 C 74.89854504929434 88.58510825184007 38.82735943954697 C 0.0 **** -0.24
21477 H 74.43856655627474 89.52913799800851 39.119133877201904 H 0.0 **** 0.06
21478 H 75.87116672803069 88.49098688055003 39.31010982582211 H 0.0 **** 0.06
21479 H 75.02647743478911 88.56346808957355 37.744423253206406 H 0.0 **** 0.06
21480 H 74.25764167595594 87.75797569008526 39.133872625691424 H 0.0 **** 0.06
21481 C 41.517345249472214 1.794397541772252 68.39989522917821 C 0.0 **** -0.24
21482 H 41.75946760322199 0.8676207721495857 68.92092338014362 H 0.0 **** 0.06
21483 H 42.4383742510972 2.290991955906126 68.09588332575694 H 0.0 **** 0.06
21484 H 40.953018741672906 2.447840630698991 69.06483763742833 H 0.0 **** 0.06
21485 H 40.91788906991101 1.568058879179553 67.51757847769596 H 0.0 **** 0.06
21486 C 20.206692521535842 31.320275301074417 23.02079193298701 C 0.0 **** -0.24
21487 H 19.292060690625988 30.772876519322608 22.792093631326537 H 0.0 **** 0.06
21488 H 20.827424053286364 30.72701304126872 23.691288693176432 H 0.0 **** 0.06
21489 H 19.952705736497734 32.26606004116388 23.50205564678646 H 0.0 **** 0.06
21490 H 20.752112164418648 31.517899331784037 22.098331725812955 H 0.0 **** 0.06
21491 C 77.6578768350262 36.97554204352829 79.98866413369295 C 0.0 **** -0.24
21492 H 77.56258811311463 36.3415271457755 79.10679968520084 H 0.0 **** 0.06
21493 H 78.5609419956302 37.58138298852643 79.90509476633477 H 0.0 **** 0.06
21494 H 77.72056392055643 36.35196034297513 80.87946198760048 H 0.0 **** 0.06
21495 H 76.78768308565247 37.62821048091354 80.06225408471077 H 0.0 **** 0.06
21496 C 15.053818802713693 97.82444971925804 62.68709215432193 C 0.0 **** -0.24
21497 H 15.514881933861233 98.75090883800759 63.03000032799608 H 0.0 **** 0.06
21498 H 14.021042811371814 97.78314429224113 63.03594514551557 H 0.0 **** 0.06
21499 H 15.606753401862505 96.97396843539119 63.08637731517561 H 0.0 **** 0.06
21500 H 15.071066779865646 97.79221536162306 61.59797318296704 H 0.0 **** 0.06
21501 C 33.763511482788715 89.17465507477779 69.2132863517781 C 0.0 **** -0.24
21502 H 34.33519411052913 90.0814790961536 69.40548620108004 H 0.0 **** 0.06
21503 H 34.442699858534354 88.36726701239753 68.94026555348964 H 0.0 **** 0.06
21504 H 33.06398842666917 89.35206248121955 68.3956147350656 H 0.0 **** 0.06
21505 H 33.210625164825416 88.8971891250674 70.11028023973651 H 0.0 **** 0.06
21506 C 101.50672904640908 23.216084205587194 33.66390478369195 C 0.0 **** -0.24
21507 H 100.75017930582341 23.887950987135852 33.25737401204486 H 0.0 **** 0.06
21508 H 102.26668731695013 23.797417417772362 34.18497846377131 H 0.0 **** 0.06
21509 H 101.9696561284419 22.65722473882573 32.85033466397058 H 0.0 **** 0.06
21510 H 101.03788718444643 22.521035963915377 34.3614426107446 H 0.0 **** 0.06
21511 C 27.390517855365346 96.20049216920071 72.84673408086296 C 0.0 **** -0.24
21512 H 27.951608463136466 96.94863896418249 73.40544182713907 H 0.0 **** 0.06
21513 H 26.429094733073683 96.03052971427297 73.33281855443326 H 0.0 **** 0.06
21514 H 27.954214530845135 95.26838275209215 72.82098994833032 H 0.0 **** 0.06
21515 H 27.225636609548204 96.55470394578913 71.82930354946885 H 0.0 **** 0.06
21516 C 65.09551594942444 11.064949594564212 56.29454087721595 C 0.0 **** -0.24
21517 H 65.24075907696295 11.037612324444694 55.21403688766501 H 0.0 **** 0.06
21518 H 64.9381876979649 10.051239923243202 56.66474256681065 H 0.0 **** 0.06
21519 H 64.22503183032278 11.677269152731697 56.528732759425495 H 0.0 **** 0.06
21520 H 65.97910053992526 11.492997569018996 56.76852814884299 H 0.0 **** 0.06
21521 C 56.825581432304546 15.486183507185387 26.718561838719012 C 0.0 **** -0.24
21522 H 56.779095014017514 15.088415849506646 27.732750504656337 H 0.0 **** 0.06
21523 H 56.56404631401654 16.544466331171634 26.731849944678544 H 0.0 **** 0.06
21524 H 56.12266662584551 14.94572897933449 26.084579673377192 H 0.0 **** 0.06
21525 H 57.83540667992372 15.365756316725026 26.326972838851333 H 0.0 **** 0.06
21526 C 82.50495766031263 90.18482783759997 2.5891258981877607 C 0.0 **** -0.24
21527 H 82.7730991266686 90.3710338252727 3.62890865139297 H 0.0 **** 0.06
21528 H 81.69063764345692 89.46091323446056 2.548391413798387 H 0.0 **** 0.06
21529 H 83.36966111039168 89.7891277829268 2.0568730508192683 H 0.0 **** 0.06
21530 H 82.18645419651408 91.1178807672913 2.123264840314926 H 0.0 **** 0.06
21531 C 96.0213631497329 51.79144576630068 64.26748350506739 C 0.0 **** -0.24
21532 H 96.915804237055 51.22057620760512 64.51730505318693 H 0.0 **** 0.06
21533 H 96.3105698458046 52.74327586621081 63.82143005835185 H 0.0 **** 0.06
21534 H 95.44417747300162 51.97425550431666 65.17425857851269 H 0.0 **** 0.06
21535 H 95.4162474802032 51.22553425353851 63.5601965563813 H 0.0 **** 0.06
21536 C 96.54288567542628 101.93312969830703 57.58302037760302 C 0.0 **** -0.24
21537 H 96.23513596284573 101.01852064219918 58.08993072433469 H 0.0 **** 0.06
21538 H 97.60086486544489 102.11476007049998 57.77345716618021 H 0.0 **** 0.06
21539 H 95.95587997602175 102.77108758272686 57.95752211236311 H 0.0 **** 0.06
21540 H 96.3793392641575 101.82550437043409 56.51022584050429 H 0.0 **** 0.06
21541 C 60.06299378378128 31.48806279656813 65.21645032055903 C 0.0 **** -0.24
21542 H 60.190796193535846 30.66994148970565 65.92509675306377 H 0.0 **** 0.06
21543 H 59.012851537032304 31.5595140898358 64.92964764225562 H 0.0 **** 0.06
21544 H 60.66962908625976 31.299575415305952 64.33027039609595 H 0.0 **** 0.06
21545 H 60.37794235054929 32.422685589309026 65.68040865568582 H 0.0 **** 0.06
21546 C 73.82043585746773 22.525759188761185 14.92934944595342 C 0.0 **** -0.24
21547 H 74.55187014875995 21.997685448303514 14.317187921251247 H 0.0 **** 0.06
21548 H 73.13614518212457 21.805568142141396 15.379907898884369 H 0.0 **** 0.06
21549 H 73.25794645344537 23.219733931975384 14.304704397282137 H 0.0 **** 0.06
21550 H 74.33588315538144 23.07875490316121 15.715036764212215 H 0.0 **** 0.06
21551 C 94.19267814823044 60.7434053761051 77.00512888252433 C 0.0 **** -0.24
21552 H 94.8327036629365 61.12920715245984 77.79878375032531 H 0.0 **** 0.06
21553 H 94.75899724753612 60.0429323298449 76.3905290590523 H 0.0 **** 0.06
21554 H 93.84347069844677 61.569727482473695 76.38621238781691 H 0.0 **** 0.06
21555 H 93.33669758583784 60.231023762669 77.44463210210276 H 0.0 **** 0.06
21556 C 8.251618942373838 63.00699179100373 0.20312416018148838 C 0.0 **** -0.24
21557 H 8.775192544623053 62.44567991934865 0.9776539651708163 H 0.0 **** 0.06
21558 H 8.977482515783777 63.41994319996735 -0.4988794090468929 H 0.0 **** 0.06
21559 H 7.68712814307851 63.818127226259165 0.6613960024719745 H 0.0 **** 0.06
21560 H 7.56936219311244 62.342554105199596 -0.3277157653322291 H 0.0 **** 0.06
21561 C 26.303853366629642 48.03272341169176 87.1770278483198 C 0.0 **** -0.24
21562 H 26.410665344933623 47.04908769306755 86.71888516782698 H 0.0 **** 0.06
21563 H 25.590588656506895 47.975023703553035 87.99894322234283 H 0.0 **** 0.06
21564 H 25.943611998228057 48.74192850503957 86.43205604877556 H 0.0 **** 0.06
21565 H 27.270857830331433 48.36254984675338 87.55633060486255 H 0.0 **** 0.06
21566 C 17.674932843222564 64.11355119368727 75.49990124224664 C 0.0 **** -0.24
21567 H 16.670761437394006 63.78696976574318 75.76901095073609 H 0.0 **** 0.06
21568 H 17.642442238579008 64.64171669196242 74.5469577628528 H 0.0 **** 0.06
21569 H 18.327616777831338 63.24522617154034 75.41228831886903 H 0.0 **** 0.06
21570 H 18.05992734348351 64.77993301699482 76.27226336006711 H 0.0 **** 0.06
21571 C 74.02973578073227 36.571155973087365 73.02618055604182 C 0.0 **** -0.24
21572 H 74.09060508459109 36.372993800962355 71.95619580072963 H 0.0 **** 0.06
21573 H 73.39793659731322 35.81954357789326 73.49993611161796 H 0.0 **** 0.06
21574 H 73.60056892353529 37.56052024658337 73.18824506479422 H 0.0 **** 0.06
21575 H 75.02816117868377 36.53317760682406 73.4611265834244 H 0.0 **** 0.06
21576 C 11.736856847584818 51.16839312642841 34.2200811266342 C 0.0 **** -0.24
21577 H 11.790992125543369 50.295036423998994 34.87050035917622 H 0.0 **** 0.06
21578 H 10.725056982935087 51.26547259951124 33.827377314854004 H 0.0 **** 0.06
21579 H 12.438022919656362 51.04822231224122 33.39423076360356 H 0.0 **** 0.06
21580 H 11.99491613049554 52.06149641579648 34.788830289208505 H 0.0 **** 0.06
21581 C 75.5064956228668 96.1571688866962 14.739135879626147 C 0.0 **** -0.24
21582 H 75.03127524243908 96.45410718623114 13.80441724533432 H 0.0 **** 0.06
21583 H 76.5864345063924 96.10004486873038 14.594665579530727 H 0.0 **** 0.06
21584 H 75.12824174444178 95.18167041661108 15.044801457813108 H 0.0 **** 0.06
21585 H 75.28127472086126 96.89280495262841 15.511093661703299 H 0.0 **** 0.06
21586 C 76.51506226200065 57.23542923190854 105.41502683887424 C 0.0 **** -0.24
21587 H 76.91941674664989 56.32209661750767 105.85092553620929 H 0.0 **** 0.06
21588 H 76.93667829483262 57.37938615509307 104.41952038609931 H 0.0 **** 0.06
21589 H 76.7758868329475 58.0849661125726 106.0462972606423 H 0.0 **** 0.06
21590 H 75.43052036670531 57.15443894656909 105.34384996776774 H 0.0 **** 0.06
21591 C 42.83170281020148 30.07644447317375 27.195603454206264 C 0.0 **** -0.24
21592 H 42.23799920925015 29.643670804777884 26.39001812477045 H 0.0 **** 0.06
21593 H 42.441013162590394 31.063649153500677 27.44435286832845 H 0.0 **** 0.06
21594 H 43.869022154548674 30.166870890089598 26.872717460597187 H 0.0 **** 0.06
21595 H 42.77882635541047 29.43164216109102 28.07287694032982 H 0.0 **** 0.06
21596 C 51.37866191162743 49.618514256387186 33.01499069140389 C 0.0 **** -0.24
21597 H 52.463254169190066 49.662725584566246 32.918214246848926 H 0.0 **** 0.06
21598 H 51.07955173532156 50.06657473950637 33.96322783048484 H 0.0 **** 0.06
21599 H 51.05360991544279 48.57858221614168 32.98650822815127 H 0.0 **** 0.06
21600 H 50.91770312199225 50.16532893414391 32.192087030350876 H 0.0 **** 0.06
21601 C 20.199470605573538 10.166292302278293 12.759569934263169 C 0.0 **** -0.24
21602 H 20.633204363105506 11.146016320742547 12.558740174630714 H 0.0 **** 0.06
21603 H 19.758148614638344 9.770447701492401 11.845056596279917 H 0.0 **** 0.06
21604 H 19.42940997301224 10.260180555241277 13.52464331724363 H 0.0 **** 0.06
21605 H 20.978948782069153 9.489317891624182 13.109682978013666 H 0.0 **** 0.06
21606 C 85.40756522650466 11.708086733241203 73.92175479416915 C 0.0 **** -0.24
21607 H 85.95046398344908 10.934156401160323 73.37809447559422 H 0.0 **** 0.06
21608 H 84.34899184152027 11.653557529768861 73.67087915251861 H 0.0 **** 0.06
21609 H 85.79801759600838 12.687233185989584 73.64266713218603 H 0.0 **** 0.06
21610 H 85.53610544666469 11.557193359093034 74.99293929993877 H 0.0 **** 0.06
21611 C 12.9375251793019 16.102390899664158 7.8155364190990895 C 0.0 **** -0.24
21612 H 13.019652454580537 17.1774939642647 7.652370032778833 H 0.0 **** 0.06
21613 H 12.715360391081347 15.910042072486618 8.865064137565923 H 0.0 **** 0.06
21614 H 13.879262542654487 15.622470544618409 7.549100869392078 H 0.0 **** 0.06
21615 H 12.136895775592905 15.700913753547027 7.194191608534538 H 0.0 **** 0.06
21616 C 5.457027233617239 34.70768264083121 84.88683795835196 C 0.0 **** -0.24
21617 H 4.9401800993104175 34.43741850212473 83.96675753862056 H 0.0 **** 0.06
21618 H 5.572686393664718 33.822011841539194 85.5128443270077 H 0.0 **** 0.06
21619 H 4.874487682592886 35.45829224245219 85.42307177539112 H 0.0 **** 0.06
21620 H 6.439724064667445 35.11408133517327 84.64634726468076 H 0.0 **** 0.06
21621 C 49.171628155297384 89.24597572681353 9.902392653803169 C 0.0 **** -0.24
21622 H 48.42018972952209 88.60254003461688 9.447029706401928 H 0.0 **** 0.06
21623 H 49.40640122220279 88.87975514380402 10.902028496279561 H 0.0 **** 0.06
21624 H 48.7861562291462 90.26371341204212 9.969661832312045 H 0.0 **** 0.06
21625 H 50.0737867967903 89.23923694106776 9.291294422588676 H 0.0 **** 0.06
21626 C 39.51805225729473 51.37204955355624 21.482374516844736 C 0.0 **** -0.24
21627 H 39.957868995768365 51.92033150626641 20.649499479921477 H 0.0 **** 0.06
21628 H 40.311008733764226 50.94105760746388 22.09318844451236 H 0.0 **** 0.06
21629 H 38.8825895246311 50.57481643793373 21.095600393123863 H 0.0 **** 0.06
21630 H 38.91922027351299 52.05133383630275 22.08833720953969 H 0.0 **** 0.06
21631 C 69.64764669555825 20.419017720306403 56.85554688641912 C 0.0 **** -0.24
21632 H 69.43738738235464 21.044445122682635 57.723181772430394 H 0.0 **** 0.06
21633 H 68.73996700203122 20.30564373215379 56.26172900377753 H 0.0 **** 0.06
21634 H 69.98941990321589 19.439590336110577 57.188861660568136 H 0.0 **** 0.06
21635 H 70.422097782391 20.887711535298415 56.24956317133092 H 0.0 **** 0.06
21636 C 46.42096161357421 98.21085737519796 55.80421903731843 C 0.0 **** -0.24
21637 H 45.5859284725442 97.71416738218478 56.298266008469824 H 0.0 **** 0.06
21638 H 47.33234652412119 97.63426031049502 55.963759305600746 H 0.0 **** 0.06
21639 H 46.54596911622758 99.2109186119089 56.221437725174724 H 0.0 **** 0.06
21640 H 46.21927224602649 98.28524275322745 54.73633662247582 H 0.0 **** 0.06
21641 C 8.230147102293131 90.51875397253197 86.76763144079095 C 0.0 **** -0.24
21642 H 8.65426541515916 91.35706812599587 87.32086445879293 H 0.0 **** 0.06
21643 H 7.1592675667457115 90.67642986200184 86.63552887749297 H 0.0 **** 0.06
21644 H 8.396200136978962 89.5956462997596 87.32358319479262 H 0.0 **** 0.06
21645 H 8.710124335108787 90.44702674206602 85.79200921187996 H 0.0 **** 0.06
21646 C 44.11240012395375 46.79002639011773 33.03133388837131 C 0.0 **** -0.24
21647 H 44.057738914772116 46.98710197755719 31.96069666140204 H 0.0 **** 0.06
21648 H 43.11755349140416 46.55803820520987 33.409936992801 H 0.0 **** 0.06
21649 H 44.499523360737605 47.67218713712927 33.54282171464186 H 0.0 **** 0.06
21650 H 44.776996470027676 45.94468610621732 33.21119559402528 H 0.0 **** 0.06
21651 C 42.06860330815641 57.80597573693183 89.86110517731126 C 0.0 **** -0.24
21652 H 42.85697695410647 57.096808815470524 89.60753465674253 H 0.0 **** 0.06
21653 H 41.84166061539503 58.42285589165709 88.9918660997318 H 0.0 **** 0.06
21654 H 42.40357121566089 58.44248939518775 90.68033932531955 H 0.0 **** 0.06
21655 H 41.174828580302034 57.26261372790225 90.1658495241769 H 0.0 **** 0.06
21656 C 49.673854929616 26.55144015618676 91.66648317681523 C 0.0 **** -0.24
21657 H 49.775094772586925 26.23941009994431 92.7060559042622 H 0.0 **** 0.06
21658 H 48.79599914302358 27.18997273864238 91.5627473921814 H 0.0 **** 0.06
21659 H 49.56163123240739 25.671777266772327 91.03257564699811 H 0.0 **** 0.06
21660 H 50.56395819907118 27.104731595322217 91.36517517663981 H 0.0 **** 0.06
21661 C 42.03842669343459 30.241185536063426 101.3763990206828 C 0.0 **** -0.24
21662 H 43.10572495314284 30.279164645809388 101.59466199077633 H 0.0 **** 0.06
21663 H 41.58126231685574 31.19706017802644 101.63492788709193 H 0.0 **** 0.06
21664 H 41.57625125383359 29.44647923927227 101.96260504618606 H 0.0 **** 0.06
21665 H 41.89123665985761 30.042944669449504 100.31554310173927 H 0.0 **** 0.06
21666 C 96.76661275150983 94.55598440146902 36.66477023297543 C 0.0 **** -0.24
21667 H 97.13445516183519 95.14810768905593 37.50173295823416 H 0.0 **** 0.06
21668 H 97.56167529426486 94.43560225291897 35.92786422146892 H 0.0 **** 0.06
21669 H 95.91829787406338 95.06300973474879 36.205534057638346 H 0.0 **** 0.06
21670 H 96.4533995018064 93.57564273122682 37.02316018072756 H 0.0 **** 0.06
21671 C 50.4974335124644 12.076901613046203 96.61393745213178 C 0.0 **** -0.24
21672 H 50.26091612607593 11.273205353893701 97.31032060605388 H 0.0 **** 0.06
21673 H 49.59360619300625 12.372586191997357 96.08056371195318 H 0.0 **** 0.06
21674 H 51.24471841710255 11.731427547845584 95.90032228999861 H 0.0 **** 0.06
21675 H 50.89013009573438 12.931136445466223 97.16568645616394 H 0.0 **** 0.06
21676 C 52.99865360177354 76.92621832319074 104.23412050087654 C 0.0 **** -0.24
21677 H 53.62434406909368 76.11086955262232 104.59865112732479 H 0.0 **** 0.06
21678 H 52.76627387856447 76.76327902579465 103.18212709921278 H 0.0 **** 0.06
21679 H 53.53154650892807 77.87029176873821 104.34695303420307 H 0.0 **** 0.06
21680 H 52.07408117516983 76.9604660422456 104.81027987354997 H 0.0 **** 0.06
21681 C 61.08717210539129 26.261388159817642 65.43242604860914 C 0.0 **** -0.24
21682 H 61.31042773613021 25.742825031073863 64.50050605647246 H 0.0 **** 0.06
21683 H 60.59361109831703 25.574799850360876 66.12076445791303 H 0.0 **** 0.06
21684 H 60.43169690636127 27.107870323916046 65.22950763594193 H 0.0 **** 0.06
21685 H 62.01470784953928 26.619993935180844 65.880310089157 H 0.0 **** 0.06
21686 C 3.471767576057772 68.5435949466387 87.62853183563435 C 0.0 **** -0.24
21687 H 3.416421230932258 68.37280377780014 86.5530966224185 H 0.0 **** 0.06
21688 H 3.4585848134247215 67.5858563548491 88.14902076254167 H 0.0 **** 0.06
21689 H 2.6162133187208667 69.14070263968641 87.94485610680206 H 0.0 **** 0.06
21690 H 4.393115821174348 69.07420832320382 87.86473191307671 H 0.0 **** 0.06
21691 C 67.00951721400551 62.478458834502305 70.37894676772487 C 0.0 **** -0.24
21692 H 67.08435189601944 62.450475611074424 69.29179524880227 H 0.0 **** 0.06
21693 H 66.56342249719266 63.423611914022175 70.68783971035822 H 0.0 **** 0.06
21694 H 68.00410762174516 62.38560045578157 70.81443950158724 H 0.0 **** 0.06
21695 H 66.38519475871337 61.65197226700802 70.71990010636002 H 0.0 **** 0.06
21696 C 102.11285617231309 72.93642010284972 12.89199606095299 C 0.0 **** -0.24
21697 H 101.22269484486561 72.84941172651108 13.513905216354061 H 0.0 **** 0.06
21698 H 102.06304084530649 72.20818954069944 12.082408267779357 H 0.0 **** 0.06
21699 H 102.99924803795061 72.74734215704717 13.498018936710608 H 0.0 **** 0.06
21700 H 102.16605287925239 73.94165821764707 12.473624022623596 H 0.0 **** 0.06
21701 C 12.190990860915463 88.9243559903087 55.17323627206167 C 0.0 **** -0.24
21702 H 13.171516235289431 88.56250248947319 54.865945398076235 H 0.0 **** 0.06
21703 H 12.200362978922968 89.13320662587094 56.243171924126955 H 0.0 **** 0.06
21704 H 11.439286652227267 88.1658555437102 54.95804682688373 H 0.0 **** 0.06
21705 H 11.953233943221221 89.83726815765215 54.626689151205085 H 0.0 **** 0.06
21706 C 10.110762542876634 26.12742106190822 60.71091495263671 C 0.0 **** -0.24
21707 H 10.615197511569702 25.27188965509434 61.16062052919109 H 0.0 **** 0.06
21708 H 10.73827832000115 27.01373570570281 60.812532276188875 H 0.0 **** 0.06
21709 H 9.159251684200095 26.295816139403087 61.216003979583235 H 0.0 **** 0.06
21710 H 9.931264388006559 25.92853593286132 59.65433801442363 H 0.0 **** 0.06
21711 C 21.523564179703186 35.19006554586973 96.4087172002993 C 0.0 **** -0.24
21712 H 20.83177897908662 34.88777623872056 95.62285010465119 H 0.0 **** 0.06
21713 H 22.34791763337836 34.478131254348895 96.46071433250482 H 0.0 **** 0.06
21714 H 21.000115415356646 35.21062444670653 97.36413773111278 H 0.0 **** 0.06
21715 H 21.913908733121076 36.182946295867644 96.18685323062942 H 0.0 **** 0.06
21716 C 32.46864170868118 53.36033235370425 15.596443363063202 C 0.0 **** -0.24
21717 H 32.73135787799499 54.36797640225495 15.920741773583558 H 0.0 **** 0.06
21718 H 32.34780655241106 53.348143223425666 14.512467775990586 H 0.0 **** 0.06
21719 H 31.534503354748885 53.059063965316795 16.070939538532414 H 0.0 **** 0.06
21720 H 33.26162026181378 52.66898042688155 15.882291666785562 H 0.0 **** 0.06
21721 C 21.87196117794386 61.36186340259549 52.457588147215915 C 0.0 **** -0.24
21722 H 22.800929874920683 61.66007635537734 51.970469113941704 H 0.0 **** 0.06
21723 H 21.494532919602733 62.18985228870096 53.058226185413275 H 0.0 **** 0.06
21724 H 22.05915815379862 60.5014261125317 53.09988454442811 H 0.0 **** 0.06
21725 H 21.134214522908394 61.09553219413755 51.69984985069982 H 0.0 **** 0.06
21726 C 16.48931402260746 82.22523070249693 39.950824708169534 C 0.0 **** -0.24
21727 H 16.178553248544546 83.26973595969525 39.918309479116004 H 0.0 **** 0.06
21728 H 16.950670858084294 82.0134194526699 40.91574677946491 H 0.0 **** 0.06
21729 H 17.20839670769672 82.03604180017675 39.154450228640314 H 0.0 **** 0.06
21730 H 15.618804219304565 81.58401917824011 39.81457074215169 H 0.0 **** 0.06
21731 C 43.82260685483666 78.04478551477996 39.280888212606754 C 0.0 **** -0.24
21732 H 43.41854503125687 78.5318315244673 40.16787575147842 H 0.0 **** 0.06
21733 H 44.43858833532713 78.75223974701214 38.72647411169348 H 0.0 **** 0.06
21734 H 43.00216833168753 77.70300828346399 38.64904748143968 H 0.0 **** 0.06
21735 H 44.429694707287666 77.19036043677272 39.580390870072335 H 0.0 **** 0.06
21736 C 93.699490176855 39.80258324032989 20.11277702230757 C 0.0 **** -0.24
21737 H 94.44319465686581 40.415791854452486 20.62218508366084 H 0.0 **** 0.06
21738 H 93.25103478440437 40.37550525235547 19.300621325809402 H 0.0 **** 0.06
21739 H 92.92543307694154 39.50843972778939 20.82144048088901 H 0.0 **** 0.06
21740 H 94.17958608640646 38.91187253191455 19.70816976328763 H 0.0 **** 0.06
21741 C 7.395845115785733 79.73788760793593 95.09810892988786 C 0.0 **** -0.24
21742 H 6.876424980166433 80.64101890761235 94.77986810614307 H 0.0 **** 0.06
21743 H 8.313007139236277 80.01184528444081 95.61991036771634 H 0.0 **** 0.06
21744 H 7.640963025149404 79.1330096884892 94.22526323486414 H 0.0 **** 0.06
21745 H 6.753386141592159 79.16576660512985 95.76830575490342 H 0.0 **** 0.06
21746 C 49.553470698692394 15.842274278498934 77.48241991395037 C 0.0 **** -0.24
21747 H 49.05028523000078 16.500373981334178 76.77419264668714 H 0.0 **** 0.06
21748 H 49.099277478542916 14.851655593571934 77.44435560699031 H 0.0 **** 0.06
21749 H 49.456855035492055 16.24815133864493 78.48940101207523 H 0.0 **** 0.06
21750 H 50.609251901075055 15.767808198203554 77.2209689919062 H 0.0 **** 0.06
21751 C 55.14717513194927 105.64248596147657 77.54801737064685 C 0.0 **** -0.24
21752 H 55.05733516996736 105.3945348690944 78.60598749252404 H 0.0 **** 0.06
21753 H 54.75098378931165 106.64274597522329 77.37373879751624 H 0.0 **** 0.06
21754 H 54.58345719070189 104.9196206394642 76.95829581317219 H 0.0 **** 0.06
21755 H 56.19648131072228 105.61019875219493 77.25569603963282 H 0.0 **** 0.06
21756 C 16.3972699897908 76.73883692361768 85.00300569006816 C 0.0 **** -0.24
21757 H 16.375477748971548 77.29915687916758 84.06705245371671 H 0.0 **** 0.06
21758 H 16.564325345915222 75.68295069757474 84.78951914324216 H 0.0 **** 0.06
21759 H 15.445384757623003 76.85928952973396 85.51948545431844 H 0.0 **** 0.06
21760 H 17.20363688102168 77.1146889006276 85.63230641958268 H 0.0 **** 0.06
21761 C 82.67032175294008 31.647302536105897 77.3598509474379 C 0.0 **** -0.24
21762 H 82.05682015147505 32.44685257784597 77.77433399108256 H 0.0 **** 0.06
21763 H 83.71242980884875 31.965113802435305 77.33532580339607 H 0.0 **** 0.06
21764 H 82.33506693507826 31.420550867931695 76.34775826529491 H 0.0 **** 0.06
21765 H 82.57549972287262 30.757593501268055 77.9818214385511 H 0.0 **** 0.06
21766 C 87.28125845639431 96.2316384213634 48.55327339480118 C 0.0 **** -0.24
21767 H 87.56427873526974 96.17469497958079 47.502241202491916 H 0.0 **** 0.06
21768 H 86.2357762746584 95.9436839587588 48.66397094270917 H 0.0 **** 0.06
21769 H 87.41658693770313 97.25335607542075 48.90957241801715 H 0.0 **** 0.06
21770 H 87.90770344196602 95.55675094763262 49.135119774101526 H 0.0 **** 0.06
21771 C 47.169325601825236 2.7002939009574902 95.60192472701263 C 0.0 **** -0.24
21772 H 48.06975538091015 2.9261475878741123 95.0310543277936 H 0.0 **** 0.06
21773 H 47.05538049940994 3.4294430155748046 96.40378741326346 H 0.0 **** 0.06
21774 H 47.25222105846996 1.7000885391322242 96.02815743815368 H 0.0 **** 0.06
21775 H 46.301143559246604 2.7443212897970284 94.94427113953532 H 0.0 **** 0.06
21776 C 37.17420756183728 21.73280495748537 88.46143861799004 C 0.0 **** -0.24
21777 H 37.39723878857427 20.825068592848538 87.90063787159377 H 0.0 **** 0.06
21778 H 36.38917105072761 21.5253966650929 89.18927392018927 H 0.0 **** 0.06
21779 H 36.839865550361026 22.510350924682655 87.77503394987255 H 0.0 **** 0.06
21780 H 38.07211488640988 22.067154727244315 88.98091562916082 H 0.0 **** 0.06
21781 C 77.46544001070971 11.909524163527077 58.838306466733314 C 0.0 **** -0.24
21782 H 77.27799260192748 12.370501681190934 59.80890060307709 H 0.0 **** 0.06
21783 H 77.07302664916163 10.892597332939195 58.8377741288742 H 0.0 **** 0.06
21784 H 78.53873239180882 11.885271897408746 58.65000884369161 H 0.0 **** 0.06
21785 H 76.97300282775399 12.49061687532991 58.0595783252586 H 0.0 **** 0.06
21786 C 14.529137179005417 8.432481450574954 70.72298498389111 C 0.0 **** -0.24
21787 H 15.474918627517894 8.026676360908656 70.3643091197581 H 0.0 **** 0.06
21788 H 14.721318306405365 9.14557350752365 71.52569907824395 H 0.0 **** 0.06
21789 H 13.90600732173398 7.621526385563866 71.09865069026279 H 0.0 **** 0.06
21790 H 14.016651106232501 8.936662628466943 69.90376092041356 H 0.0 **** 0.06
21791 C 58.56987664589212 72.63209158307619 64.34529462638005 C 0.0 **** -0.24
21792 H 57.95872761638287 72.3023459886214 63.505655791106165 H 0.0 **** 0.06
21793 H 57.93867575008059 72.75661938595722 65.22562013389683 H 0.0 **** 0.06
21794 H 59.0423117366407 73.58363823516763 64.0987894114823 H 0.0 **** 0.06
21795 H 59.33852481306383 71.8878250840969 64.55073568410745 H 0.0 **** 0.06
21796 C 76.32726018390366 45.41821882689834 41.288432604441965 C 0.0 **** -0.24
21797 H 75.47314156375597 44.755909471047886 41.144851830342844 H 0.0 **** 0.06
21798 H 76.46487095627356 46.03162363140109 40.398714408346024 H 0.0 **** 0.06
21799 H 77.22296741581675 44.82140713458773 41.46204161780558 H 0.0 **** 0.06
21800 H 76.14701918939915 46.06096742545441 42.15014957263486 H 0.0 **** 0.06
21801 C 52.55549221585589 69.46501985902106 23.783997078389405 C 0.0 **** -0.24
21802 H 51.550060582207244 69.05206542573441 23.866849850999813 H 0.0 **** 0.06
21803 H 53.2865641482657 68.6602712732388 23.86605975969627 H 0.0 **** 0.06
21804 H 52.7190933902973 70.18738809177893 24.583085593023043 H 0.0 **** 0.06
21805 H 52.66560642336249 69.9595683941869 22.819009873404923 H 0.0 **** 0.06
21806 C 72.37711543843356 81.2871533129987 9.508965854555527 C 0.0 **** -0.24
21807 H 71.44053854578843 80.77466657782044 9.726758734527209 H 0.0 **** 0.06
21808 H 72.18234435217843 82.34726951106346 9.349195577985483 H 0.0 **** 0.06
21809 H 72.8242940990592 80.8607524541959 8.610727977328168 H 0.0 **** 0.06
21810 H 73.0616969000402 81.16564072136384 10.34831537149114 H 0.0 **** 0.06
21811 C 47.29306371098946 71.06645655565494 88.38650191566751 C 0.0 **** -0.24
21812 H 46.371749129065506 70.74329493136199 87.89987392309159 H 0.0 **** 0.06
21813 H 47.09176692636377 71.9461440543019 88.99848414815416 H 0.0 **** 0.06
21814 H 48.0360535955296 71.31260675803854 87.62805494606309 H 0.0 **** 0.06
21815 H 47.67042322203647 70.26201735054752 89.01826223168817 H 0.0 **** 0.06
21816 C 77.82579996462078 34.24646493146369 29.083926070541196 C 0.0 **** -0.24
21817 H 78.44806569864514 33.96429878326118 29.933671541282905 H 0.0 **** 0.06
21818 H 77.01263358086005 33.52917438252708 28.97525968785905 H 0.0 **** 0.06
21819 H 78.43078315713326 34.25223703986305 28.17714178764527 H 0.0 **** 0.06
21820 H 77.41290087414627 35.24136201962177 29.25210708852231 H 0.0 **** 0.06
21821 C 84.76679637866727 54.02987028130358 20.063290690446138 C 0.0 **** -0.24
21822 H 84.13394542087114 53.42399900046211 19.415732732651918 H 0.0 **** 0.06
21823 H 85.13886491826354 54.8900311222523 19.505412475250125 H 0.0 **** 0.06
21824 H 85.60845443689067 53.432280162011416 20.412865362444194 H 0.0 **** 0.06
21825 H 84.18591699237507 54.375387320235745 20.918856499474003 H 0.0 **** 0.06
21826 C 38.08198090297964 23.580753730859215 43.01502352323496 C 0.0 **** -0.24
21827 H 39.00753969457037 23.3022797164611 42.51038812125165 H 0.0 **** 0.06
21828 H 38.17973746326453 23.39212978612636 44.08402415945227 H 0.0 **** 0.06
21829 H 37.258977406205986 22.989556676566735 42.61419567071238 H 0.0 **** 0.06
21830 H 37.88275904434391 24.63996781292832 42.84949428389416 H 0.0 **** 0.06
21831 C 12.636915778058722 61.64052649608345 78.52340319949455 C 0.0 **** -0.24
21832 H 12.29390699625948 60.86207467064747 77.84231699969116 H 0.0 **** 0.06
21833 H 12.117694471405642 61.54380403087487 79.4775885940491 H 0.0 **** 0.06
21834 H 12.426773936633452 62.619765369102595 78.09275210760507 H 0.0 **** 0.06
21835 H 13.710944114368601 61.53640106723762 78.68245604489259 H 0.0 **** 0.06
21836 C 83.54979000531006 54.848232229393886 96.54620216869358 C 0.0 **** -0.24
21837 H 83.35045420106309 55.920558913129724 96.5322915068309 H 0.0 **** 0.06
21838 H 83.06610777688438 54.40023031913839 97.41395528838285 H 0.0 **** 0.06
21839 H 84.62468004062049 54.68032059372911 96.60090803274254 H 0.0 **** 0.06
21840 H 83.15650177987843 54.395384881751056 95.63584269185216 H 0.0 **** 0.06
21841 C 104.06176329267379 67.89203468992329 0.4978377980611235 C 0.0 **** -0.24
21842 H 103.99521998600986 67.02691206132525 -0.16231942514523956 H 0.0 **** 0.06
21843 H 104.72422489529166 68.63684649959376 0.054608974248580466 H 0.0 **** 0.06
21844 H 104.45872556016872 67.58113614640442 1.4639158152837073 H 0.0 **** 0.06
21845 H 103.06977035374786 68.32156823797621 0.6330472242244971 H 0.0 **** 0.06
21846 C 98.44793407972023 20.000740802326057 92.67773646737018 C 0.0 **** -0.24
21847 H 98.25264357548697 21.064742326809586 92.80602527179637 H 0.0 **** 0.06
21848 H 99.4402773016551 19.763506032117874 93.06357760522891 H 0.0 **** 0.06
21849 H 98.40062498493128 19.747610888474124 91.61829376835075 H 0.0 **** 0.06
21850 H 97.69899958864454 19.4260816446546 93.22250125949769 H 0.0 **** 0.06
21851 C 58.526060351380266 36.52765300056416 102.41891755586886 C 0.0 **** -0.24
21852 H 59.53208585170552 36.12415347476221 102.30404139503167 H 0.0 **** 0.06
21853 H 58.3572670750425 37.302269869173756 101.67032335241572 H 0.0 **** 0.06
21854 H 58.4177096424595 36.95541799724697 103.4149526351614 H 0.0 **** 0.06
21855 H 57.79643337489023 35.72864009404515 102.28515813102177 H 0.0 **** 0.06
21856 C 60.227579708995464 82.61099398280697 77.78552132431419 C 0.0 **** -0.24
21857 H 59.90982028341752 83.07708989295327 76.85271948683284 H 0.0 **** 0.06
21858 H 60.949099189673134 81.82208168857596 77.56923721896896 H 0.0 **** 0.06
21859 H 59.361893257214405 82.18292620560737 78.29185786791216 H 0.0 **** 0.06
21860 H 60.68935327477001 83.36074226228646 78.42744216616047 H 0.0 **** 0.06
21861 C 31.47119932057933 72.41780272508265 6.064898632340427 C 0.0 **** -0.24
21862 H 31.795509575008026 71.50509393775161 6.563278172782878 H 0.0 **** 0.06
21863 H 30.419070077422617 72.32790324092326 5.7927848844046785 H 0.0 **** 0.06
21864 H 32.06738265485049 72.57091599172037 5.165115055822975 H 0.0 **** 0.06
21865 H 31.602529853969486 73.26585429851627 6.7367360482031895 H 0.0 **** 0.06
21866 C 13.760268594509 61.19287173247653 87.59824199512362 C 0.0 **** -0.24
21867 H 13.941257025307564 60.17666457698715 87.2471665911641 H 0.0 **** 0.06
21868 H 13.186182431264555 61.73851239687872 86.85010163422365 H 0.0 **** 0.06
21869 H 14.713763798567271 61.69517742426166 87.76195089096082 H 0.0 **** 0.06
21870 H 13.201786902983002 61.16070793477678 88.53336196850091 H 0.0 **** 0.06
21871 C 86.30807465971574 57.12234928130067 28.326238364617808 C 0.0 **** -0.24
21872 H 86.27963468683348 56.65725947913958 29.311029863984388 H 0.0 **** 0.06
21873 H 86.21686334964221 58.20378235338589 28.432820559422993 H 0.0 **** 0.06
21874 H 85.48177886062385 56.745934147426794 27.723342354489418 H 0.0 **** 0.06
21875 H 87.25305254587673 56.8833934079677 27.83810046968277 H 0.0 **** 0.06
21876 C 64.54605117567361 0.006609101851694277 77.62851315513927 C 0.0 **** -0.24
21877 H 64.47333437723013 0.9370961056791458 77.06452471583755 H 0.0 **** 0.06
21878 H 65.58932848652283 -0.30860189230531887 77.6752493839084 H 0.0 **** 0.06
21879 H 63.95509053510317 -0.7648317927049959 77.13392725284324 H 0.0 **** 0.06
21880 H 64.16778554489406 0.16307294194422184 78.63858190174537 H 0.0 **** 0.06
21881 C 87.20848754155168 16.15365729233298 40.574375787563866 C 0.0 **** -0.24
21882 H 87.65686032104705 17.100232004774767 40.27328966556018 H 0.0 **** 0.06
21883 H 86.35013243260727 15.93919240174796 39.93677788915725 H 0.0 **** 0.06
21884 H 86.88156901670325 16.220527923125303 41.61286574066118 H 0.0 **** 0.06
21885 H 87.9437697639504 15.355836829222085 40.47558704968957 H 0.0 **** 0.06
21886 C 95.60238255481923 93.11443161336526 65.17342930672777 C 0.0 **** -0.24
21887 H 96.32145873167445 93.92565285570724 65.06684046178316 H 0.0 **** 0.06
21888 H 95.78929788796958 92.36046633506564 64.40836737911235 H 0.0 **** 0.06
21889 H 94.59191145235641 93.50638637012804 65.05808494587097 H 0.0 **** 0.06
21890 H 95.70630134816332 92.66452894492264 66.16087914760016 H 0.0 **** 0.06
21891 C 57.68748043208032 31.670278362313475 70.61942057698208 C 0.0 **** -0.24
21892 H 57.16789142192745 30.778301652846537 70.27233496263996 H 0.0 **** 0.06
21893 H 58.41813858685889 31.39269997208192 71.37967030022853 H 0.0 **** 0.06
21894 H 56.96703302765869 32.368878372801795 71.04592885498751 H 0.0 **** 0.06
21895 H 58.19779949488609 32.14266649623532 69.77999600188761 H 0.0 **** 0.06
21896 C 89.27803645862713 42.681018823476094 87.24757285057538 C 0.0 **** -0.24
21897 H 89.3550630181827 43.012801339061106 86.21180453083133 H 0.0 **** 0.06
21898 H 90.27391122741153 42.462461580122195 87.63311517894246 H 0.0 **** 0.06
21899 H 88.66365767890767 41.78212848873872 87.29544322233679 H 0.0 **** 0.06
21900 H 88.81883411372132 43.46704860875023 87.84686166162237 H 0.0 **** 0.06
21901 C 103.50880033352999 60.65709509468246 105.88332655314647 C 0.0 **** -0.24
21902 H 104.33928533887737 61.02747808437084 105.28128348050784 H 0.0 **** 0.06
21903 H 103.86993865007096 59.88373804318849 106.56076781515513 H 0.0 **** 0.06
21904 H 102.744740324101 60.23943790339558 105.22808884443026 H 0.0 **** 0.06
21905 H 103.08419449289462 61.47818569435731 106.45999696598768 H 0.0 **** 0.06
21906 C 8.03312904719445 51.72804417961796 19.095767650067955 C 0.0 **** -0.24
21907 H 8.679685766582793 50.92275005737452 18.747053592289035 H 0.0 **** 0.06
21908 H 8.633922690643743 52.61629349543633 19.292279428656684 H 0.0 **** 0.06
21909 H 7.530383440778536 51.4192236194473 20.01260212369442 H 0.0 **** 0.06
21910 H 7.289103039085049 51.953120986114875 18.33215688377777 H 0.0 **** 0.06
21911 C 60.32160487247836 52.769922764785754 32.415741029868514 C 0.0 **** -0.24
21912 H 60.86551380999441 51.86745391081799 32.13801866671258 H 0.0 **** 0.06
21913 H 60.77113288462772 53.63134535664172 31.920629481741912 H 0.0 **** 0.06
21914 H 60.36924537114891 52.90506012415049 33.49627005908451 H 0.0 **** 0.06
21915 H 59.28049398174187 52.67491945480852 32.106965707487745 H 0.0 **** 0.06
21916 C 45.34923024321097 20.20007902167231 75.82762909212056 C 0.0 **** -0.24
21917 H 45.993734143809206 20.742645015892464 76.51901361338966 H 0.0 **** 0.06
21918 H 45.08569845579541 20.849158812938413 74.99218001665511 H 0.0 **** 0.06
21919 H 44.44257907923827 19.888532635285273 76.34631803924864 H 0.0 **** 0.06
21920 H 45.873945840923966 19.32149513120703 75.4538851399538 H 0.0 **** 0.06
21921 C 47.457447072026554 68.10722851417898 102.42912296461013 C 0.0 **** -0.24
21922 H 48.41160816581362 68.40798549759211 102.86154930588346 H 0.0 **** 0.06
21923 H 46.67366109183314 68.20013156387651 103.1810121030162 H 0.0 **** 0.06
21924 H 47.52001645221611 67.07191525855347 102.0946155306516 H 0.0 **** 0.06
21925 H 47.22496804412299 68.75037312079394 101.58006275117357 H 0.0 **** 0.06
21926 C 92.82981936165967 46.46950403620298 72.7144859559952 C 0.0 **** -0.24
21927 H 92.37380484544619 47.21734328365824 72.06491996518793 H 0.0 **** 0.06
21928 H 92.86610856506195 45.5113817392442 72.19588642616378 H 0.0 **** 0.06
21929 H 92.23691898420756 46.3695937489112 73.62341211569685 H 0.0 **** 0.06
21930 H 93.84183563696942 46.782518712568276 72.97290734940327 H 0.0 **** 0.06
21931 C 17.047888121908244 95.83508724201711 56.25477224835592 C 0.0 **** -0.24
21932 H 16.255832072554824 95.52087515763576 56.93556645751124 H 0.0 **** 0.06
21933 H 17.324660550149147 95.00003100350862 55.61062797655572 H 0.0 **** 0.06
21934 H 17.91660945263766 96.15360658032908 56.83121426833168 H 0.0 **** 0.06
21935 H 16.693609430664168 96.66455893115233 55.64331170038358 H 0.0 **** 0.06
21936 C 78.4194738842306 98.44292687917718 80.10357066514186 C 0.0 **** -0.24
21937 H 78.56632313061453 98.90903185333369 81.07784483383018 H 0.0 **** 0.06
21938 H 78.56511477684954 99.18713998306814 79.31988173086593 H 0.0 **** 0.06
21939 H 77.40826888776235 98.04253475639541 80.04061630859813 H 0.0 **** 0.06
21940 H 79.13949677477764 97.63475981140488 79.97549752662208 H 0.0 **** 0.06
21941 C 87.49727147144455 1.668839027911611 4.3305737436542415 C 0.0 **** -0.24
21942 H 86.94934588439105 2.53861570771726 3.967411507940767 H 0.0 **** 0.06
21943 H 86.82754678718112 0.8092499023908557 4.3737031336373775 H 0.0 **** 0.06
21944 H 87.88731964214116 1.8764929565538049 5.327032965947296 H 0.0 **** 0.06
21945 H 88.32472460360259 1.4515198829106621 3.654987020315332 H 0.0 **** 0.06
21946 C 74.8480455271037 45.42833230098214 3.4058890997359583 C 0.0 **** -0.24
21947 H 73.78691997212219 45.30791863424082 3.1907408912840935 H 0.0 **** 0.06
21948 H 74.97486738670534 45.76929390275498 4.433998610757257 H 0.0 **** 0.06
21949 H 75.276164479795 46.16290528423555 2.72420854592211 H 0.0 **** 0.06
21950 H 75.35591377985857 44.47223601293447 3.27571047525808 H 0.0 **** 0.06
21951 C 33.32192702229999 102.47717560737718 18.04337728289977 C 0.0 **** -0.24
21952 H 33.13686520193332 102.00195365221069 17.079876407054968 H 0.0 **** 0.06
21953 H 32.8020459557286 103.43368914886304 18.082328082638867 H 0.0 **** 0.06
21954 H 34.39263857851827 102.63834823558784 18.16883188119104 H 0.0 **** 0.06
21955 H 32.9569855280686 101.83167142090434 18.842746279461636 H 0.0 **** 0.06
21956 C 38.79380968445071 18.934246858437362 24.302392144983255 C 0.0 **** -0.24
21957 H 37.91364573623065 19.561879783029582 24.446152701650444 H 0.0 **** 0.06
21958 H 39.2527817339427 18.726829442757293 25.26947560504577 H 0.0 **** 0.06
21959 H 39.509256357943315 19.45308881983874 23.664079680572478 H 0.0 **** 0.06
21960 H 38.49804044957358 17.997377551717832 23.83081909098935 H 0.0 **** 0.06
21961 C 24.944322626431813 24.570551502173345 102.64487184789027 C 0.0 **** -0.24
21962 H 24.955856181225386 25.52909923147297 103.16453806417863 H 0.0 **** 0.06
21963 H 25.960553008597458 24.303343723556225 102.35503478688659 H 0.0 **** 0.06
21964 H 24.319504070898347 24.647567238769312 101.75529102696314 H 0.0 **** 0.06
21965 H 24.54223182424846 23.803380230322347 103.30659001568196 H 0.0 **** 0.06
21966 C 16.572483410337966 42.658831950239865 1.2160990004053929 C 0.0 **** -0.24
21967 H 17.07694024176675 41.77467028853033 0.8265631718327597 H 0.0 **** 0.06
21968 H 16.427030652895724 43.37749072561549 0.4089845033735884 H 0.0 **** 0.06
21969 H 17.182270839065367 43.109955166142065 1.9994360179404822 H 0.0 **** 0.06
21970 H 15.604898922352561 42.3729297734861 1.6275511508110299 H 0.0 **** 0.06
21971 C 105.10017717412154 52.669228494820885 27.13012836395626 C 0.0 **** -0.24
21972 H 104.18983256846022 52.198759934104004 26.7591408695028 H 0.0 **** 0.06
21973 H 105.75900799255258 51.90720608788038 27.547653878788992 H 0.0 **** 0.06
21974 H 104.84435281404258 53.3930851422447 27.904075501775992 H 0.0 **** 0.06
21975 H 105.60569523488874 53.1786584826346 26.30987640583021 H 0.0 **** 0.06
21976 C 73.31884357573225 105.39337065823867 0.7519233569568655 C 0.0 **** -0.24
21977 H 72.96482992204662 104.66294348573983 1.4786586147295395 H 0.0 **** 0.06
21978 H 72.66056585411387 106.26249868847175 0.7614966472748677 H 0.0 **** 0.06
21979 H 73.3182895718933 104.94669684827205 -0.2417012442961095 H 0.0 **** 0.06
21980 H 74.33172261920038 105.70143065643241 1.0106505734015627 H 0.0 **** 0.06
21981 C 2.1387210904691756 27.98922152094744 83.85563829237856 C 0.0 **** -0.24
21982 H 1.6491607503876935 28.762859394327506 83.26344334360778 H 0.0 **** 0.06
21983 H 2.0742202639933254 27.035536203111434 83.33178748834678 H 0.0 **** 0.06
21984 H 1.6438161170730723 27.907025145533993 84.82385964011235 H 0.0 **** 0.06
21985 H 3.1849301012626654 28.252989716503123 84.0044995311327 H 0.0 **** 0.06
21986 C 56.012299704621114 41.30398221063115 70.40507698207114 C 0.0 **** -0.24
21987 H 57.013250153556555 41.04523056705858 70.05995311061682 H 0.0 **** 0.06
21988 H 55.80674637370748 40.78757695106128 71.34250917963834 H 0.0 **** 0.06
21989 H 55.281460202260064 41.00204325665965 69.65504552601314 H 0.0 **** 0.06
21990 H 55.94944380730644 42.38082255610948 70.56105679771204 H 0.0 **** 0.06
21991 C 61.83305572556827 69.39331248854239 95.28029700226972 C 0.0 **** -0.24
21992 H 62.412360337373514 70.2695773834497 94.99176686063987 H 0.0 **** 0.06
21993 H 60.810117126872285 69.69455270732163 95.5096607686495 H 0.0 **** 0.06
21994 H 62.2826710222388 68.9344074878889 96.16065941517422 H 0.0 **** 0.06
21995 H 61.825837848503895 68.67597194907307 94.46004147510388 H 0.0 **** 0.06
21996 C 39.952303584071906 63.82646081168548 65.25026934434567 C 0.0 **** -0.24
21997 H 39.78041102849491 63.14533169526413 64.41562698028298 H 0.0 **** 0.06
21998 H 39.0249869460469 63.9574097963104 65.80805059831079 H 0.0 **** 0.06
21999 H 40.28738780505172 64.79043596434434 64.86878523044885 H 0.0 **** 0.06
22000 H 40.71641135117581 63.41007506581076 65.90710186800158 H 0.0 **** 0.06
22001 C 48.745066612844596 49.48554863341947 77.0629016898537 C 0.0 **** -0.24
22002 H 47.88498455617284 49.28687455561062 76.42280856221527 H 0.0 **** 0.06
22003 H 48.52792988801974 49.15104790015231 78.07665143517445 H 0.0 **** 0.06
22004 H 48.95192550942099 50.5562779613889 77.06952478180293 H 0.0 **** 0.06
22005 H 49.613800825571786 48.94983820955583 76.68018127061288 H 0.0 **** 0.06
22006 C 63.329569431508105 72.50795608580573 65.57849920386592 C 0.0 **** -0.24
22007 H 62.939890558916815 72.64816960571092 66.58644822205429 H 0.0 **** 0.06
22008 H 63.10381346871537 71.49665475794222 65.23947766891274 H 0.0 **** 0.06
22009 H 64.4087641738269 72.65850160040173 65.58229766792539 H 0.0 **** 0.06
22010 H 62.86471868847474 73.22932767709554 64.90612316177297 H 0.0 **** 0.06
22011 C 51.48496539256408 0.1949491039732152 54.45082780249794 C 0.0 **** -0.24
22012 H 51.964579916671546 0.7451141630730262 55.26099140828421 H 0.0 **** 0.06
22013 H 50.79121072368147 0.8526666714279827 53.92593178607933 H 0.0 **** 0.06
22014 H 50.939642838597635 -0.6551378827150529 54.86230585949818 H 0.0 **** 0.06
22015 H 52.24396125269309 -0.16346016502825478 53.75526774167713 H 0.0 **** 0.06
22016 C 91.53537132714396 38.99240190264224 24.815517530254738 C 0.0 **** -0.24
22017 H 91.63132283058533 39.83118188828169 25.50438334792088 H 0.0 **** 0.06
22018 H 91.7847250059697 39.32088628789984 23.806095665703793 H 0.0 **** 0.06
22019 H 90.51060476168695 38.62161110284485 24.83350001104006 H 0.0 **** 0.06
22020 H 92.21519138695217 38.19564084463984 25.116753638144985 H 0.0 **** 0.06
22021 C 23.621132063124776 29.907177762832532 74.17869951162383 C 0.0 **** -0.24
22022 H 23.73494334138053 30.96426682929328 73.93875910382314 H 0.0 **** 0.06
22023 H 22.848156213653027 29.47174253426536 73.54508825372886 H 0.0 **** 0.06
22024 H 23.33592804264137 29.80153186449502 75.22565382856641 H 0.0 **** 0.06
22025 H 24.56651062253016 29.391864489248462 74.00600219470671 H 0.0 **** 0.06
22026 C 18.207150394424787 16.2519048135606 61.81606673278526 C 0.0 **** -0.24
22027 H 17.81039116637642 16.836494576597715 62.646441141103196 H 0.0 **** 0.06
22028 H 19.28483540163296 16.140455500017765 61.93250018963215 H 0.0 **** 0.06
22029 H 17.993465077304535 16.763700332001576 60.87745730284183 H 0.0 **** 0.06
22030 H 17.738597893231685 15.267992379356997 61.80834899508267 H 0.0 **** 0.06
22031 C 28.28130410185787 6.508783045305194 62.9794835298901 C 0.0 **** -0.24
22032 H 28.166245098234583 5.446569687706756 63.19434371092052 H 0.0 **** 0.06
22033 H 27.354410532791235 7.029773632577729 63.21983293674214 H 0.0 **** 0.06
22034 H 28.511249633357693 6.643321504440905 61.922287149096405 H 0.0 **** 0.06
22035 H 29.09380788638623 6.915541395715678 63.58233508305614 H 0.0 **** 0.06
22036 C 11.007804866916757 104.37141572298964 106.87021175745771 C 0.0 **** -0.24
22037 H 11.762390176517584 103.82273847831226 107.43327123068381 H 0.0 **** 0.06
22038 H 11.320210343622563 104.45332038135638 105.82930295345555 H 0.0 **** 0.06
22039 H 10.89172644812649 105.36851713862063 107.29483779275263 H 0.0 **** 0.06
22040 H 10.057871531102364 103.84007197058656 106.92354238494073 H 0.0 **** 0.06
22041 C 43.22674469680112 48.39855764408025 56.03095077940466 C 0.0 **** -0.24
22042 H 44.15075012632519 48.67307403226213 56.539193237602746 H 0.0 **** 0.06
22043 H 42.50988821032024 48.02062453390678 56.76030328368833 H 0.0 **** 0.06
22044 H 43.435175650908945 47.62500906212342 55.291432108980445 H 0.0 **** 0.06
22045 H 42.81207175578953 49.27527036910346 55.533929819780354 H 0.0 **** 0.06
22046 C 90.06037334164051 21.215552578675556 56.86918317989378 C 0.0 **** -0.24
22047 H 90.52705450310992 22.010045908473558 57.45122934237219 H 0.0 **** 0.06
22048 H 90.69911794959584 20.963638704763866 56.021770352227236 H 0.0 **** 0.06
22049 H 89.08963940792886 21.55355238395566 56.505150881590765 H 0.0 **** 0.06
22050 H 89.92682476331298 20.33518448947609 57.49729820137122 H 0.0 **** 0.06
22051 C 77.51452973829012 68.11422351817896 23.849267599577104 C 0.0 **** -0.24
22052 H 78.09271504598833 67.23756332217275 24.14030596787785 H 0.0 **** 0.06
22053 H 77.45852717084756 68.16834248100685 22.76172560485952 H 0.0 **** 0.06
22054 H 77.99816344786862 69.0124812319851 24.234174418870225 H 0.0 **** 0.06
22055 H 76.50811792315342 68.03884255601244 24.262102574546873 H 0.0 **** 0.06
22056 C 61.02955691246653 102.67114393109327 64.59112582897127 C 0.0 **** -0.24
22057 H 60.20294192506559 102.05457687650481 64.94555985901587 H 0.0 **** 0.06
22058 H 61.56285888092815 102.14351447138718 63.79979725467393 H 0.0 **** 0.06
22059 H 61.711292517620265 102.87345646770983 65.41694353857008 H 0.0 **** 0.06
22060 H 60.6407060180167 103.6116856940336 64.20207976630896 H 0.0 **** 0.06
22061 C 24.68206392155946 76.70525007930891 31.618963653281924 C 0.0 **** -0.24
22062 H 24.764203438776235 76.0502694216463 30.751898996222877 H 0.0 **** 0.06
22063 H 23.95219254710895 76.29516744190761 32.316828758446135 H 0.0 **** 0.06
22064 H 24.358939292921605 77.69540763506276 31.29597256298463 H 0.0 **** 0.06
22065 H 25.651545489445766 76.7813958727634 32.10990046275259 H 0.0 **** 0.06
22066 C 28.471985426177156 82.61256541437147 92.41503866566741 C 0.0 **** -0.24
22067 H 28.92869149306945 82.59174579363356 93.40447629100647 H 0.0 **** 0.06
22068 H 29.21368478413381 82.92343179868041 91.67923715478588 H 0.0 **** 0.06
22069 H 27.640443388896482 83.31626210533841 92.41318179818607 H 0.0 **** 0.06
22070 H 28.10487737102674 81.61679006893277 92.16416041113375 H 0.0 **** 0.06
22071 C 12.023162845222373 46.51204062302276 42.58999631649726 C 0.0 **** -0.24
22072 H 11.784784831789736 45.6570342240352 41.9576129894713 H 0.0 **** 0.06
22073 H 11.371676644997592 47.3469628022473 42.33380429945754 H 0.0 **** 0.06
22074 H 13.06289924383438 46.800133233040526 42.433856661878565 H 0.0 **** 0.06
22075 H 11.874594322831214 46.2424849620465 43.63566349556075 H 0.0 **** 0.06
22076 C 36.71029411136624 75.24296436890515 94.44440995563586 C 0.0 **** -0.24
22077 H 35.74383422118228 75.29628806139098 94.94668042124222 H 0.0 **** 0.06
22078 H 36.70904655150321 74.40707028019503 93.74458194769964 H 0.0 **** 0.06
22079 H 37.4965029645756 75.0973844226817 95.18536328488382 H 0.0 **** 0.06
22080 H 36.88917320791893 76.17129766403693 93.90246508601558 H 0.0 **** 0.06
22081 C 59.80016991035432 35.587367176063594 54.04649834417651 C 0.0 **** -0.24
22082 H 59.982843278262074 35.69722234718586 52.977722889915384 H 0.0 **** 0.06
22083 H 58.79074014525067 35.92915649258339 54.27883300681469 H 0.0 **** 0.06
22084 H 60.52286096176633 36.18542826692732 54.60147246637786 H 0.0 **** 0.06
22085 H 59.90369774072063 34.53937049577428 54.32707567212606 H 0.0 **** 0.06
22086 C 24.006642797359035 6.098725923687596 16.51867040996956 C 0.0 **** -0.24
22087 H 23.708809382609175 5.069516318158151 16.320820701730668 H 0.0 **** 0.06
22088 H 23.98186217885618 6.669421564605258 15.589395857146997 H 0.0 **** 0.06
22089 H 25.01669828804839 6.112494727351802 16.927940521129926 H 0.0 **** 0.06
22090 H 23.317911378268583 6.544601764586119 17.236764767955947 H 0.0 **** 0.06
22091 C 0.724653590234368 32.87102376860233 19.512542062456617 C 0.0 **** -0.24
22092 H 0.4036793301951036 31.85506486080024 19.28257091545541 H 0.0 **** 0.06
22093 H 1.7625071570831494 32.8565981190454 19.84661783368972 H 0.0 **** 0.06
22094 H 0.09388220967016991 33.28204317110615 20.300887946272923 H 0.0 **** 0.06
22095 H 0.6385055826786612 33.489797469651194 18.618807549743252 H 0.0 **** 0.06
22096 C 69.24979869082034 14.804460821898047 91.69343055425357 C 0.0 **** -0.24
22097 H 69.5592472060261 14.825869292583647 90.64902883559435 H 0.0 **** 0.06
22098 H 68.56529953213953 13.971321806057173 91.85349615806443 H 0.0 **** 0.06
22099 H 68.74778584868119 15.739639850824215 91.94228194751302 H 0.0 **** 0.06
22100 H 70.12672278562303 14.682392906568094 92.32918857618526 H 0.0 **** 0.06
22101 C 84.32583202741112 104.5662959352593 64.3941182621378 C 0.0 **** -0.24
22102 H 84.9302924930998 104.70436123649168 65.29080396106093 H 0.0 **** 0.06
22103 H 84.95453897910049 104.68383395490082 63.51100098188397 H 0.0 **** 0.06
22104 H 83.52937941516888 105.30985634380482 64.37491308420402 H 0.0 **** 0.06
22105 H 83.89045602516005 103.56705401943171 64.40020400449504 H 0.0 **** 0.06
22106 C 50.116451284186155 74.9496317972395 19.829721560074574 C 0.0 **** -0.24
22107 H 50.96581039077495 75.14772177939449 20.483426515452038 H 0.0 **** 0.06
22108 H 50.477321338072045 74.6104454615416 18.85809961848048 H 0.0 **** 0.06
22109 H 49.53468004107543 75.86274209090735 19.703683787673526 H 0.0 **** 0.06
22110 H 49.48881527368394 74.17707701652172 20.274692218618725 H 0.0 **** 0.06
22111 C 18.98108723710722 38.462458836953665 105.40451774199005 C 0.0 **** -0.24
22112 H 19.27701896700408 39.47292023672243 105.12221845539256 H 0.0 **** 0.06
22113 H 17.983145097431876 38.48677269401494 105.84246298680904 H 0.0 **** 0.06
22114 H 19.689093284141315 38.06686761227648 106.13298582138935 H 0.0 **** 0.06
22115 H 18.975083930526555 37.825671269490265 104.52091082808329 H 0.0 **** 0.06
22116 C 56.84784653622684 70.27621777383786 106.69754889215004 C 0.0 **** -0.24
22117 H 56.72978152902096 69.44127038305217 107.38769973284289 H 0.0 **** 0.06
22118 H 57.26434414965412 69.91325065659524 105.7569706657519 H 0.0 **** 0.06
22119 H 57.51984951508528 71.0151810625938 107.13294976641203 H 0.0 **** 0.06
22120 H 55.87577924249163 70.73433366064504 106.51177544688889 H 0.0 **** 0.06
22121 C 61.5314138556769 80.83404105356615 74.19478486870493 C 0.0 **** -0.24
22122 H 62.321209398335924 80.0830886495192 74.15607769011486 H 0.0 **** 0.06
22123 H 61.973377817014836 81.82829422312113 74.12987571559933 H 0.0 **** 0.06
22124 H 60.98662926786628 80.73948840737287 75.13374025817464 H 0.0 **** 0.06
22125 H 60.846861817460706 80.68509559498327 73.35974746610309 H 0.0 **** 0.06
22126 C 104.30385083265669 77.36253977772031 26.076942095183426 C 0.0 **** -0.24
22127 H 103.89287630943909 76.37204948423044 25.88221763038473 H 0.0 **** 0.06
22128 H 103.80484426900476 78.09368484197455 25.43978582054524 H 0.0 **** 0.06
22129 H 105.37173122128644 77.361434993736 25.861354747411497 H 0.0 **** 0.06
22130 H 104.1442739402025 77.62306316659101 27.122626763831704 H 0.0 **** 0.06
22131 C 79.76279966201344 24.56032678110475 67.88659719513781 C 0.0 **** -0.24
22132 H 79.75340601080654 25.57815235557362 67.49729584144237 H 0.0 **** 0.06
22133 H 79.52863354353838 24.576880441677716 68.9514037269668 H 0.0 **** 0.06
22134 H 80.75190383847081 24.125258711222727 67.73935771446916 H 0.0 **** 0.06
22135 H 79.02053178176106 23.96251455429332 67.35934055785137 H 0.0 **** 0.06
22136 C 44.747439146793305 34.08739610494678 25.234864565613037 C 0.0 **** -0.24
22137 H 43.69317965398141 34.25088108460554 25.010535990869784 H 0.0 **** 0.06
22138 H 45.14948738329127 34.963352140975644 25.74500767858632 H 0.0 **** 0.06
22139 H 45.29524091211062 33.92258874570743 24.307709017405045 H 0.0 **** 0.06
22140 H 44.849811091137724 33.21366500217346 25.87821411111119 H 0.0 **** 0.06
22141 C 12.913573128199062 23.298563677486598 0.7559079787098426 C 0.0 **** -0.24
22142 H 11.971643273159316 23.847108100888434 0.769760099137045 H 0.0 **** 0.06
22143 H 13.594115979883043 23.72721248345804 1.4914991215690492 H 0.0 **** 0.06
22144 H 13.360193862026051 23.366893289547917 -0.2365539794227942 H 0.0 **** 0.06
22145 H 12.728168924198457 22.25209514084917 0.9986498244864066 H 0.0 **** 0.06
22146 C 90.14730517731175 26.146605893774847 97.34808093477096 C 0.0 **** -0.24
22147 H 90.51942880755097 25.48656434851273 96.5640695177936 H 0.0 **** 0.06
22148 H 89.08265563646836 25.967651899819202 97.49802267385849 H 0.0 **** 0.06
22149 H 90.30481343308632 27.183884736041193 97.05471358656214 H 0.0 **** 0.06
22150 H 90.68485674987488 25.94671659793903 98.27553946715716 H 0.0 **** 0.06
22151 C 9.87004248534717 30.322697588051312 40.08035188751865 C 0.0 **** -0.24
22152 H 10.505746731832033 30.537693996019243 39.22166431701933 H 0.0 **** 0.06
22153 H 10.045044941199052 29.29947085692055 40.41357543100566 H 0.0 **** 0.06
22154 H 8.824187250389144 30.43820364285486 39.794726406710424 H 0.0 **** 0.06
22155 H 10.104507638438662 31.01372022908481 40.88886497973973 H 0.0 **** 0.06
22156 C 61.087734427026874 79.43816863952355 23.41197549396685 C 0.0 **** -0.24
22157 H 61.00754746683174 80.44548114478556 23.823175410943804 H 0.0 **** 0.06
22158 H 60.305307316575295 78.80952788345303 23.8376201165442 H 0.0 **** 0.06
22159 H 62.06383536854378 79.022002573917 23.661062749552457 H 0.0 **** 0.06
22160 H 60.97490785996871 79.4785469599135 22.329543339802854 H 0.0 **** 0.06
22161 C 58.476609203522656 38.808952539503935 52.67817602312414 C 0.0 **** -0.24
22162 H 57.835845859021134 38.65680207658431 51.809045234978804 H 0.0 **** 0.06
22163 H 58.68281410306113 39.872573137371546 52.79530605362543 H 0.0 **** 0.06
22164 H 59.41367268330234 38.27002130236292 52.53646191835636 H 0.0 **** 0.06
22165 H 57.97374218905108 38.43502609137215 53.56990494719001 H 0.0 **** 0.06
22166 C 7.715287530220394 62.586450579567 84.23716581138547 C 0.0 **** -0.24
22167 H 8.540754488959124 61.98158375536579 83.86204832805151 H 0.0 **** 0.06
22168 H 7.782487144729117 62.6586694452638 85.32239773356443 H 0.0 **** 0.06
22169 H 6.7689862114739014 62.12002803868653 83.96103434051739 H 0.0 **** 0.06
22170 H 7.769723392116489 63.58442419033692 83.80140653315286 H 0.0 **** 0.06
22171 C 80.05081924699883 98.9398387836007 95.23765160839639 C 0.0 **** -0.24
22172 H 79.70429775355927 99.18820484556417 96.24062810050472 H 0.0 **** 0.06
22173 H 79.93179918801536 97.86925701578772 95.06732055576832 H 0.0 **** 0.06
22174 H 81.10206569016486 99.20981752340613 95.13968692021612 H 0.0 **** 0.06
22175 H 79.4629792703646 99.49152905933562 94.50334870387158 H 0.0 **** 0.06
22176 C 56.77050273946537 54.19961900939531 106.5845044206306 C 0.0 **** -0.24
22177 H 56.358223337061986 53.50748011131486 105.8507516583673 H 0.0 **** 0.06
22178 H 56.045401230937614 54.35469895902794 107.38375828709079 H 0.0 **** 0.06
22179 H 56.99082838622496 55.15111539852044 106.10253258549344 H 0.0 **** 0.06
22180 H 57.68741778945173 53.78236014850863 107.00111761689826 H 0.0 **** 0.06
22181 C 60.91526815751355 92.49245398173096 20.36972310705994 C 0.0 **** -0.24
22182 H 61.64232995705679 92.36335187081445 19.567320751973824 H 0.0 **** 0.06
22183 H 60.98750318221825 91.65374708770824 21.063077715881946 H 0.0 **** 0.06
22184 H 59.91142940032946 92.52943194110523 19.947263569257444 H 0.0 **** 0.06
22185 H 61.12112248298975 93.42175650023566 20.900260101949527 H 0.0 **** 0.06
22186 C 58.57127090451161 103.7219139156752 54.18538499220779 C 0.0 **** -0.24
22187 H 59.578593272166415 103.60989945924906 54.58707783441017 H 0.0 **** 0.06
22188 H 58.05381491764166 102.76350318882398 54.22956524799625 H 0.0 **** 0.06
22189 H 58.62839882685216 104.05688755741281 53.14965685617992 H 0.0 **** 0.06
22190 H 58.025084201503375 104.45843223099865 54.775698143594326 H 0.0 **** 0.06
22191 C 36.751617002927475 77.59576487525356 23.453073386613198 C 0.0 **** -0.24
22192 H 36.258112166744525 78.04649518262471 22.591720440132605 H 0.0 **** 0.06
22193 H 36.0817044015909 76.86938602672979 23.915207207664906 H 0.0 **** 0.06
22194 H 37.00269888194752 78.3713046708597 24.175546602471513 H 0.0 **** 0.06
22195 H 37.66331713207505 77.09367929746418 23.12763260116236 H 0.0 **** 0.06
22196 C 57.83340403520627 51.500780550189106 69.49255212725711 C 0.0 **** -0.24
22197 H 58.275481596135464 51.08414819957639 68.58766560979512 H 0.0 **** 0.06
22198 H 56.757196495251634 51.32925075574941 69.4823760994272 H 0.0 **** 0.06
22199 H 58.03118814979204 52.57128104495665 69.53272397782655 H 0.0 **** 0.06
22200 H 58.27073449829146 51.01670387614229 70.36602540520454 H 0.0 **** 0.06
22201 C 48.50900820134261 71.51277514930858 47.2522491967415 C 0.0 **** -0.24
22202 H 48.28240398779704 71.66076017335774 48.30767073674298 H 0.0 **** 0.06
22203 H 48.98171843606868 72.40986907855529 46.853260234299 H 0.0 **** 0.06
22204 H 47.584888568197655 71.31583283162811 46.707102959205145 H 0.0 **** 0.06
22205 H 49.184218185911405 70.66442723832215 47.14127173295657 H 0.0 **** 0.06
22206 C 8.58557207826533 43.414609132437164 12.344808162366292 C 0.0 **** -0.24
22207 H 9.173736330148188 43.94322375467323 13.096079869849916 H 0.0 **** 0.06
22208 H 8.18264043009168 42.49844259058119 12.778030647179094 H 0.0 **** 0.06
22209 H 9.221231421199718 43.1661092428366 11.495523365787434 H 0.0 **** 0.06
22210 H 7.765942796594516 44.050967323564606 12.012302878651894 H 0.0 **** 0.06
22211 C 102.90334582633925 71.27912673577727 72.31358130285423 C 0.0 **** -0.24
22212 H 103.37661324253156 71.00151163427695 71.37158526806547 H 0.0 **** 0.06
22213 H 101.84606087623985 71.01396756384757 72.28065854934087 H 0.0 **** 0.06
22214 H 103.00509311580505 72.3532481568726 72.46858894702956 H 0.0 **** 0.06
22215 H 103.38620245719241 70.74651727615965 73.13324182454312 H 0.0 **** 0.06
22216 C 22.029406841447738 47.94039169017134 36.17094897891775 C 0.0 **** -0.24
22217 H 22.09806098434331 48.705421757226134 35.39864253976461 H 0.0 **** 0.06
22218 H 22.215948720776225 46.9611954022987 35.72958464050251 H 0.0 **** 0.06
22219 H 21.032593272655834 47.95613890839269 36.61150593961736 H 0.0 **** 0.06
22220 H 22.771941716162004 48.1374906124999 36.94470780377395 H 0.0 **** 0.06
22221 C 91.23127872013146 77.51194979672722 85.0556816196738 C 0.0 **** -0.24
22222 H 90.62296787392447 78.14159884625661 85.70415648134647 H 0.0 **** 0.06
22223 H 91.95765238826979 78.12972301574523 84.52600404747756 H 0.0 **** 0.06
22224 H 90.59035133664236 77.00520949140098 84.33421986856243 H 0.0 **** 0.06
22225 H 91.75666838933503 76.7700035215806 85.65818572196605 H 0.0 **** 0.06
22226 C 95.63383474310513 27.905779550575147 3.3086631448407413 C 0.0 **** -0.24
22227 H 95.09111882810302 28.652274958118824 3.88789083104613 H 0.0 **** 0.06
22228 H 96.17294179960575 27.24263229410451 3.9863106006764593 H 0.0 **** 0.06
22229 H 96.34284828470349 28.403020074536627 2.6469197240753903 H 0.0 **** 0.06
22230 H 94.92927409086722 27.32345739117183 2.7146640638845225 H 0.0 **** 0.06
22231 C 16.799650583495975 77.44308594630043 79.55585733598107 C 0.0 **** -0.24
22232 H 17.22704400524016 76.5837525278412 80.07343794609537 H 0.0 **** 0.06
22233 H 15.728059079687498 77.29156571047571 79.42356975170125 H 0.0 **** 0.06
22234 H 17.274820528222364 77.55236200774465 78.58088042202786 H 0.0 **** 0.06
22235 H 16.970542130755348 78.34396950316257 80.14575616995062 H 0.0 **** 0.06
22236 C 67.33210768975619 7.596369432589247 83.9763998199754 C 0.0 **** -0.24
22237 H 66.52556492644408 8.328742661759902 83.94035907895878 H 0.0 **** 0.06
22238 H 67.73001235137087 7.545124607870864 84.99102175045383 H 0.0 **** 0.06
22239 H 68.12393100551441 7.893581834070803 83.28971264591324 H 0.0 **** 0.06
22240 H 66.94688008574326 6.61882212592484 83.68753889654026 H 0.0 **** 0.06
22241 C 10.060333163436866 77.9825008505861 9.855739193410045 C 0.0 **** -0.24
22242 H 10.6489506494475 77.39195010947465 10.558416235025504 H 0.0 **** 0.06
22243 H 9.583921498936846 77.31797406313633 9.134450891112976 H 0.0 **** 0.06
22244 H 10.713617860553754 78.68048163589886 9.331801552102235 H 0.0 **** 0.06
22245 H 9.296558182124912 78.53758107153709 10.399699117714675 H 0.0 **** 0.06
22246 C 84.75804063474493 56.78956109359564 32.90626829699933 C 0.0 **** -0.24
22247 H 85.75683435463111 56.361529710492704 32.81629061093055 H 0.0 **** 0.06
22248 H 84.17944581050159 56.54922314590249 32.0126965085189 H 0.0 **** 0.06
22249 H 84.8349710115557 57.87134160362186 33.00908021106892 H 0.0 **** 0.06
22250 H 84.26252040018477 56.37408503395886 33.78311377846863 H 0.0 **** 0.06
22251 C 60.72577362760693 104.76416490280786 88.8983549444781 C 0.0 **** -0.24
22252 H 59.93334919505406 105.18062852979392 88.27644234956043 H 0.0 **** 0.06
22253 H 60.87596075687837 105.40012184556275 89.77085898900548 H 0.0 **** 0.06
22254 H 61.64947399540213 104.71197891684022 88.32257292706257 H 0.0 **** 0.06
22255 H 60.442835959811404 103.76236465403991 89.222933573948 H 0.0 **** 0.06
22256 C 92.94133738030484 12.620311539683108 34.943278876344 C 0.0 **** -0.24
22257 H 93.22571252221707 13.636104977301013 35.21757829450567 H 0.0 **** 0.06
22258 H 93.30358016306229 12.400313102639545 33.938165130133164 H 0.0 **** 0.06
22259 H 91.85504162164352 12.528139576040893 34.96680771967577 H 0.0 **** 0.06
22260 H 93.3810152142965 11.91668850275092 35.650564361061285 H 0.0 **** 0.06
22261 C 52.64195955746536 22.73844945563343 80.09562390688401 C 0.0 **** -0.24
22262 H 53.42762775052244 22.70405744231732 80.85116307998909 H 0.0 **** 0.06
22263 H 52.579060882118405 23.746788347764323 79.68374862749478 H 0.0 **** 0.06
22264 H 51.688776949189666 22.471103259658037 80.55006153991188 H 0.0 **** 0.06
22265 H 52.87536514893167 22.033563767623946 79.29784530995798 H 0.0 **** 0.06
22266 C 91.75445013188099 95.47886097902204 72.96081921437039 C 0.0 **** -0.24
22267 H 91.95909593943314 95.61225872897512 71.89889369585782 H 0.0 **** 0.06
22268 H 91.25510609261757 96.36747822615342 73.34888324748421 H 0.0 **** 0.06
22269 H 92.69298935337866 95.32745998930682 73.49499205539247 H 0.0 **** 0.06
22270 H 91.1119831734089 94.61006512376508 73.10140598854312 H 0.0 **** 0.06
22271 C 60.93167987752946 40.530308905306185 32.49386358834618 C 0.0 **** -0.24
22272 H 61.69395110484038 39.92824360112863 31.999505777815784 H 0.0 **** 0.06
22273 H 60.45447441293226 41.18340558329828 31.76268138315988 H 0.0 **** 0.06
22274 H 61.394330117949266 41.134173300382855 33.2732108546671 H 0.0 **** 0.06
22275 H 60.18288810647937 39.87436135981528 32.93840203437924 H 0.0 **** 0.06
22276 C 104.56172337566584 5.851738593576499 61.78374549079804 C 0.0 **** -0.24
22277 H 103.80482261867566 5.444700743639771 61.114578800099665 H 0.0 **** 0.06
22278 H 105.49357148785134 5.299079142153161 61.656421414095234 H 0.0 **** 0.06
22279 H 104.22288179892668 5.758653470300359 62.81533127589927 H 0.0 **** 0.06
22280 H 104.72726754942316 6.902736271331577 61.548954796202096 H 0.0 **** 0.06
22281 C 47.51506866482339 32.24758280856547 71.46383697433293 C 0.0 **** -0.24
22282 H 47.0075554399815 33.138166758241 71.09266682508695 H 0.0 **** 0.06
22283 H 46.773242471609365 31.50356602433557 71.7576817092517 H 0.0 **** 0.06
22284 H 48.12591235469171 32.51151668848006 72.32666289075019 H 0.0 **** 0.06
22285 H 48.150671225360725 31.83771254291807 70.67944649854041 H 0.0 **** 0.06
22286 C 102.05353041934299 64.84597904958694 5.549199585079862 C 0.0 **** -0.24
22287 H 103.00312496300748 64.43321774845899 5.2105936840906395 H 0.0 **** 0.06
22288 H 101.73356701684256 65.631425839532 4.863735131292515 H 0.0 **** 0.06
22289 H 102.17542450522288 65.26403202165547 6.549096735961541 H 0.0 **** 0.06
22290 H 101.30203955535919 64.05683831270312 5.574040797462146 H 0.0 **** 0.06
22291 C 87.42540809843445 14.86540324948524 12.214465404690031 C 0.0 **** -0.24
22292 H 86.38961968977907 15.12311527804843 11.994657382912578 H 0.0 **** 0.06
22293 H 87.61375091016984 13.83396892341024 11.917746868231475 H 0.0 **** 0.06
22294 H 87.60695552704018 14.974947962068995 13.283978016708886 H 0.0 **** 0.06
22295 H 88.09025248021456 15.529976336104255 11.662795880624955 H 0.0 **** 0.06
22296 C 63.788700009187664 104.9830000501998 28.726347212506226 C 0.0 **** -0.24
22297 H 63.1864769469295 105.20002360592679 27.844501514237436 H 0.0 **** 0.06
22298 H 63.132093780993785 104.75919407592822 29.567685372124288 H 0.0 **** 0.06
22299 H 64.40696144615856 105.84766228812668 28.96688141101177 H 0.0 **** 0.06
22300 H 64.42878451353846 104.12293705769866 28.526301605622592 H 0.0 **** 0.06
22301 C 69.29990194136104 22.080866545200564 16.731946594012257 C 0.0 **** -0.24
22302 H 69.697075946854 22.39417206185084 17.697685270297654 H 0.0 **** 0.06
22303 H 68.4915836664137 22.75125963376533 16.43736477402618 H 0.0 **** 0.06
22304 H 68.9185656857075 21.062618250495547 16.808919192448045 H 0.0 **** 0.06
22305 H 70.09247681341935 22.116820428834842 15.983956529214197 H 0.0 **** 0.06
22306 C 92.92073316713862 79.9107206486787 48.823665390025724 C 0.0 **** -0.24
22307 H 93.58852960825675 79.48781350322372 49.57390611580496 H 0.0 **** 0.06
22308 H 93.38837984165218 80.78727820629888 48.374383540824624 H 0.0 **** 0.06
22309 H 91.98105969603438 80.20004344554616 49.29364918768948 H 0.0 **** 0.06
22310 H 92.72542104279037 79.16649868178109 48.05092507585323 H 0.0 **** 0.06
22311 C 14.528781084073302 31.420170670184717 68.66350273440099 C 0.0 **** -0.24
22312 H 15.415592816137305 30.86438737449464 68.35816094457935 H 0.0 **** 0.06
22313 H 14.693993429743315 32.48515704113447 68.49943679674796 H 0.0 **** 0.06
22314 H 14.3337799679569 31.240614768531543 69.72089526384133 H 0.0 **** 0.06
22315 H 13.67284058758844 31.08997342771835 68.07479282169753 H 0.0 **** 0.06
22316 C 88.7085685287304 96.4904463449829 63.26743696885484 C 0.0 **** -0.24
22317 H 89.15806959083025 97.12715908302494 64.02977378096767 H 0.0 **** 0.06
22318 H 88.51178039482473 95.50356584300815 63.68827671149475 H 0.0 **** 0.06
22319 H 89.39213526520427 96.39543858257181 62.42369367063557 H 0.0 **** 0.06
22320 H 87.77301039301945 96.93436853659645 62.9289569626354 H 0.0 **** 0.06
22321 C 99.29858577663394 66.11216628694673 53.632528557205916 C 0.0 **** -0.24
22322 H 99.06984081177869 67.05521897351308 54.128632441861114 H 0.0 **** 0.06
22323 H 99.26742631082301 65.30239186263508 54.362245095900875 H 0.0 **** 0.06
22324 H 100.29316997781196 66.16650595621427 53.19104795041083 H 0.0 **** 0.06
22325 H 98.56307603341021 65.92518162185229 52.85016620093348 H 0.0 **** 0.06
22326 C 84.34590529593135 66.7435732749229 97.3379993544857 C 0.0 **** -0.24
22327 H 83.68077825661362 67.31005472861726 96.6861792149366 H 0.0 **** 0.06
22328 H 84.56595034648365 67.33076946470436 98.23030231791279 H 0.0 **** 0.06
22329 H 85.27316819230106 66.52504685816801 96.80899519397326 H 0.0 **** 0.06
22330 H 83.86268863616812 65.81004613376409 97.62705897333524 H 0.0 **** 0.06
22331 C 38.281011487626444 19.617917670479642 33.94178285049125 C 0.0 **** -0.24
22332 H 39.297740394095115 19.7652249205116 33.576209797390845 H 0.0 **** 0.06
22333 H 38.31337580692599 19.252338644449623 34.96801149059914 H 0.0 **** 0.06
22334 H 37.771151580329814 18.8889014034457 33.31135212495573 H 0.0 **** 0.06
22335 H 37.74302966479968 20.56567830731639 33.909766162022095 H 0.0 **** 0.06
22336 C 59.55131150965268 40.527673673012856 49.45164309907989 C 0.0 **** -0.24
22337 H 59.30883232690125 41.58544867885254 49.55089814490191 H 0.0 **** 0.06
22338 H 59.268470796683154 40.18187866384308 48.457054902323875 H 0.0 **** 0.06
22339 H 59.00427839833653 39.958131194596334 50.20336770012466 H 0.0 **** 0.06
22340 H 60.622797583827875 40.38483478333845 49.59554724065168 H 0.0 **** 0.06
22341 C 4.143169623883892 37.60227689938583 18.983544681603313 C 0.0 **** -0.24
22342 H 4.412639612541554 37.65874706527856 17.92845852653318 H 0.0 **** 0.06
22343 H 4.988726321743627 37.21517269040294 19.55244179515728 H 0.0 **** 0.06
22344 H 3.288317144453572 36.93741287540465 19.104832557453367 H 0.0 **** 0.06
22345 H 3.8850964798761964 38.59662061667612 19.34557292972972 H 0.0 **** 0.06
22346 C 6.71377827677901 64.64348530283213 28.054319865140577 C 0.0 **** -0.24
22347 H 5.802636798779275 65.22684069036794 27.91838809680436 H 0.0 **** 0.06
22348 H 7.444257016056781 64.92932722240863 27.29800056756654 H 0.0 **** 0.06
22349 H 6.482076999702002 63.58324739388323 27.955801978665264 H 0.0 **** 0.06
22350 H 7.122327206919536 64.83538437089842 29.046396081833272 H 0.0 **** 0.06
22351 C 64.64645610703305 62.02377214965475 51.81842901649341 C 0.0 **** -0.24
22352 H 65.49954955461662 61.70974715343317 51.218208630652086 H 0.0 **** 0.06
22353 H 63.72669864034913 61.65591031301861 51.361794965382295 H 0.0 **** 0.06
22354 H 64.6178545796694 63.11190161947121 51.867661915844806 H 0.0 **** 0.06
22355 H 64.74039487332134 61.61678107413735 52.825226155991295 H 0.0 **** 0.06
22356 C 10.892701653834507 9.92468861744365 85.17168675706613 C 0.0 **** -0.24
22357 H 10.28912700176221 9.248308091210987 85.7775504095733 H 0.0 **** 0.06
22358 H 10.426596683307793 10.910160030588088 85.15377066292243 H 0.0 **** 0.06
22359 H 10.964305832762221 9.536152524479789 84.15656894031669 H 0.0 **** 0.06
22360 H 11.891382609155215 10.002829264393284 85.60216338503423 H 0.0 **** 0.06
22361 C 100.10858936585628 34.39670877090953 78.08196536702323 C 0.0 **** -0.24
22362 H 99.21335061049857 34.22727999884194 77.48443199722125 H 0.0 **** 0.06
22363 H 99.97737943709329 35.294660989608815 78.6877232263384 H 0.0 **** 0.06
22364 H 100.9663508717364 34.526263647114945 77.42173703082211 H 0.0 **** 0.06
22365 H 100.27775377130884 33.53995783566387 78.73407113753754 H 0.0 **** 0.06
22366 C 37.69798465932067 96.9316097200177 41.15917509846901 C 0.0 **** -0.24
22367 H 37.45903810167003 97.20291785832885 40.13091582174184 H 0.0 **** 0.06
22368 H 37.53323788521945 95.86341597718473 41.300911978348665 H 0.0 **** 0.06
22369 H 37.05974182964607 97.49225716440591 41.841117308113155 H 0.0 **** 0.06
22370 H 38.74233056477706 97.16810850687546 41.36229735021266 H 0.0 **** 0.06
22371 C 7.916896758450546 97.97501375541924 50.58679840153766 C 0.0 **** -0.24
22372 H 7.693129999902149 98.47984170243012 49.647246982250465 H 0.0 **** 0.06
22373 H 7.068201061568606 98.07643055870193 51.264331443746016 H 0.0 **** 0.06
22374 H 8.799539797697106 98.42494734168847 51.04048739747711 H 0.0 **** 0.06
22375 H 8.105347882018147 96.91884086887828 50.395485326674134 H 0.0 **** 0.06
22376 C 102.66084510093215 45.469454897365274 32.388697868691494 C 0.0 **** -0.24
22377 H 103.41720874958757 45.637921102017565 33.154825041306 H 0.0 **** 0.06
22378 H 103.12905675929534 45.03808281712066 31.50378222785779 H 0.0 **** 0.06
22379 H 102.19285358293722 46.41893864311348 32.12662476006168 H 0.0 **** 0.06
22380 H 101.90306039378133 44.78445325328877 32.77059556196195 H 0.0 **** 0.06
22381 C 85.56257334520501 90.58661129812508 73.84766933327292 C 0.0 **** -0.24
22382 H 86.47293232182898 90.07389785730926 74.15925912264137 H 0.0 **** 0.06
22383 H 85.4110922364502 90.43776489039834 72.77828401694975 H 0.0 **** 0.06
22384 H 85.65827332970153 91.65237499708039 74.05606792683609 H 0.0 **** 0.06
22385 H 84.71168725750621 90.1838598401147 74.39594278423509 H 0.0 **** 0.06
22386 C 79.07934231213719 105.71223269904378 30.26213838782229 C 0.0 **** -0.24
22387 H 78.75070492542416 106.10950524405135 29.30098451287654 H 0.0 **** 0.06
22388 H 79.19593054064337 104.6309437498313 30.187619188224346 H 0.0 **** 0.06
22389 H 78.33615122916189 105.94592045699812 31.024491163288303 H 0.0 **** 0.06
22390 H 80.03369352345356 106.16307450201936 30.53448586205954 H 0.0 **** 0.06
22391 C 23.396981627864307 4.5753764902815135 28.60955333870445 C 0.0 **** -0.24
22392 H 23.457970505808007 4.826883836032067 29.667650237545246 H 0.0 **** 0.06
22393 H 24.259181966421593 4.990303331432898 28.08766542776777 H 0.0 **** 0.06
22394 H 22.48238579674738 4.9938573566060995 28.188796921524055 H 0.0 **** 0.06
22395 H 23.388027434072896 3.4916282997308485 28.492872603931346 H 0.0 **** 0.06
22396 C 28.07930535756364 52.510499130548055 91.22506469901782 C 0.0 **** -0.24
22397 H 29.014684148677446 51.952084037616544 91.25465839666604 H 0.0 **** 0.06
22398 H 27.873920435809552 52.92718531013611 92.21072505312647 H 0.0 **** 0.06
22399 H 27.267536273313347 51.84401540896084 90.93492839437366 H 0.0 **** 0.06
22400 H 28.16320117642302 53.31932631537046 90.49817897689877 H 0.0 **** 0.06
22401 C 101.899569853929 95.30649310686431 55.27852501555335 C 0.0 **** -0.24
22402 H 102.74996676642255 95.86409864759796 54.888072985180614 H 0.0 **** 0.06
22403 H 101.58413536731175 94.5634764127114 54.54570647945971 H 0.0 **** 0.06
22404 H 101.0761200188548 95.99256198403208 55.47761942985502 H 0.0 **** 0.06
22405 H 102.18681738262543 94.8063666648354 56.20312605378739 H 0.0 **** 0.06
22406 C 28.961570857068388 24.374765132740833 1.2849284695830372 C 0.0 **** -0.24
22407 H 28.017805616850985 23.965759501149137 1.646764494388199 H 0.0 **** 0.06
22408 H 28.80138553614954 25.389679666135237 0.9214854255096991 H 0.0 **** 0.06
22409 H 29.339462743727097 23.753349534473955 0.473664617476115 H 0.0 **** 0.06
22410 H 29.686824687322726 24.389518677512143 2.0991354272007063 H 0.0 **** 0.06
22411 C 33.73596915895274 22.050567628644274 89.15172608776638 C 0.0 **** -0.24
22412 H 33.659366611565886 20.963562998919343 89.14297021501532 H 0.0 **** 0.06
22413 H 34.02278297152759 22.38652597147339 90.14731910437104 H 0.0 **** 0.06
22414 H 32.77230675842617 22.484632620894132 88.88465478534091 H 0.0 **** 0.06
22415 H 34.48857783146525 22.36751457499804 88.42988918216199 H 0.0 **** 0.06
22416 C 104.40426717677433 100.34713899960211 67.69222211599335 C 0.0 **** -0.24
22417 H 104.45397479157872 100.93014214344609 66.77325686236003 H 0.0 **** 0.06
22418 H 104.85478761075781 100.91280337089938 68.50732875314993 H 0.0 **** 0.06
22419 H 104.94439964962218 99.40968025140623 67.55734163197621 H 0.0 **** 0.06
22420 H 103.36172360641578 100.13397372984983 67.930323400313 H 0.0 **** 0.06
22421 C 102.93290793538085 99.89204690611484 25.635973293065433 C 0.0 **** -0.24
22422 H 103.45415820530022 98.93409489840337 25.629983761111987 H 0.0 **** 0.06
22423 H 103.64702879213877 100.6935105688644 25.82667760116817 H 0.0 **** 0.06
22424 H 102.17490110231344 99.8865915220444 26.419990921472163 H 0.0 **** 0.06
22425 H 102.45543153860632 100.05123945892724 24.669568776159764 H 0.0 **** 0.06
22426 C 39.88098579938489 41.08876775555646 61.587968291826144 C 0.0 **** -0.24
22427 H 39.832877587027895 40.75386604235338 62.62454351303819 H 0.0 **** 0.06
22428 H 38.89095355154973 41.01943814406471 61.1374949285634 H 0.0 **** 0.06
22429 H 40.57683874496206 40.45778123331145 61.03394532376751 H 0.0 **** 0.06
22430 H 40.223581350277584 42.122615105609896 61.55572525556187 H 0.0 **** 0.06
22431 C 28.226100997257618 65.39439749249507 22.03280297160981 C 0.0 **** -0.24
22432 H 28.92188420245546 64.97039045434828 22.756964196470648 H 0.0 **** 0.06
22433 H 28.525327926498875 66.41643644693507 21.797107407212877 H 0.0 **** 0.06
22434 H 27.220391624894063 65.3984792649123 22.454086419732732 H 0.0 **** 0.06
22435 H 28.23753195543361 64.79385229311544 21.123121426604797 H 0.0 **** 0.06
22436 C 39.107168605770795 50.25301823904931 48.923344589110116 C 0.0 **** -0.24
22437 H 39.89318767554417 50.931316038735076 48.59351014609916 H 0.0 **** 0.06
22438 H 38.53157589687757 49.916841264221205 48.06093703999181 H 0.0 **** 0.06
22439 H 38.448495215029055 50.77193024747561 49.62031620643535 H 0.0 **** 0.06
22440 H 39.55454202905736 49.39184961020112 49.42010443001328 H 0.0 **** 0.06
22441 C 19.09991823751514 72.38642109708542 96.40977469115978 C 0.0 **** -0.24
22442 H 20.093297794760375 71.9492151608494 96.30994121294867 H 0.0 **** 0.06
22443 H 18.34718426258496 71.60480248839637 96.29925004799327 H 0.0 **** 0.06
22444 H 18.956118433571717 73.14241766318126 95.63783200170263 H 0.0 **** 0.06
22445 H 19.003135259549026 72.84768522827162 97.39281750927381 H 0.0 **** 0.06
22446 C 6.389481119368185 64.51401579880178 51.86389501486764 C 0.0 **** -0.24
22447 H 6.284835470872167 63.455295656538794 52.10302823779148 H 0.0 **** 0.06
22448 H 7.1669349854132065 64.64004502769387 51.11012127900699 H 0.0 **** 0.06
22449 H 6.663731024940802 65.06352761613971 52.764046351622824 H 0.0 **** 0.06
22450 H 5.4437227937687 64.89390661407839 51.47909011929869 H 0.0 **** 0.06
22451 C 104.59970875534482 70.11385185016636 102.35436890697179 C 0.0 **** -0.24
22452 H 105.21295608684783 70.5144761687074 103.16265515316161 H 0.0 **** 0.06
22453 H 104.17210584898271 69.1604780028967 102.66178830262612 H 0.0 **** 0.06
22454 H 105.21795815284555 69.96650804757246 101.4689344452737 H 0.0 **** 0.06
22455 H 103.79872872335015 70.81586726203795 102.12544534513165 H 0.0 **** 0.06
22456 C 69.69753836181354 27.311575487636162 102.52280983572778 C 0.0 **** -0.24
22457 H 69.25366410163775 26.341255106814458 102.74562749926616 H 0.0 **** 0.06
22458 H 69.01144514770328 28.102698625996823 102.82523005117092 H 0.0 **** 0.06
22459 H 69.89094438342966 27.385884447471312 101.45266218308467 H 0.0 **** 0.06
22460 H 70.63546256491489 27.41459910849329 103.06963438409765 H 0.0 **** 0.06
22461 C 61.329724207298966 6.066262302064061 102.04177676960938 C 0.0 **** -0.24
22462 H 60.91072038150969 5.172986942118058 102.507067775287 H 0.0 **** 0.06
22463 H 61.60810967111678 5.842382148294462 101.01217106866437 H 0.0 **** 0.06
22464 H 62.21266218603992 6.383888373244318 102.59660099471955 H 0.0 **** 0.06
22465 H 60.587229888355694 6.864153355138114 102.05307981677487 H 0.0 **** 0.06
22466 C 44.088102810492806 45.72227225144562 2.9276626127689402 C 0.0 **** -0.24
22467 H 43.21068943216586 45.14894612777121 2.6284375699271427 H 0.0 **** 0.06
22468 H 44.95981119762629 45.067131011148746 2.946799291196001 H 0.0 **** 0.06
22469 H 43.927335502932365 46.141996031003515 3.9199627000257076 H 0.0 **** 0.06
22470 H 44.25566032686402 46.529639286751916 2.213739840083451 H 0.0 **** 0.06
22471 C 0.3798686327440728 47.65509912233202 43.48454312282626 C 0.0 **** -0.24
22472 H 0.7822648970511317 47.52303753965164 44.48878695843344 H 0.0 **** 0.06
22473 H -0.6243643555892122 48.07515957554565 43.54802593751784 H 0.0 **** 0.06
22474 H 0.33917359894947197 46.68961546886395 42.98032696491177 H 0.0 **** 0.06
22475 H 1.022993532433488 48.3316356289246 42.921898105339444 H 0.0 **** 0.06
22476 C 5.633969746990715 74.03723566099916 30.938645008157692 C 0.0 **** -0.24
22477 H 6.052594226508916 73.31528294183445 31.639879296976545 H 0.0 **** 0.06
22478 H 4.619721972039997 73.73943184885532 30.672241067769704 H 0.0 **** 0.06
22479 H 6.250518377443484 74.07086244975916 30.040261045512153 H 0.0 **** 0.06
22480 H 5.614011890532595 75.0236077554691 31.402125843075993 H 0.0 **** 0.06
22481 C 28.528184996551943 16.02786573724744 103.81030785993656 C 0.0 **** -0.24
22482 H 27.442048572084484 15.960340919839808 103.73945711832488 H 0.0 **** 0.06
22483 H 28.934943042176045 16.34894285473527 102.85147258980714 H 0.0 **** 0.06
22484 H 28.935721345043717 15.050861139415105 104.06996887976317 H 0.0 **** 0.06
22485 H 28.797168316533764 16.750450183224785 104.58060675466267 H 0.0 **** 0.06
22486 C 6.213641942849788 100.43459198328208 97.33813907184762 C 0.0 **** -0.24
22487 H 7.038719522585268 100.6952410906161 98.00150380339365 H 0.0 **** 0.06
22488 H 6.554051711179929 99.70221293979552 96.60546255507339 H 0.0 **** 0.06
22489 H 5.864109168284351 101.32954301347962 96.82414766796741 H 0.0 **** 0.06
22490 H 5.397609429065501 100.01017431580539 97.92419227036815 H 0.0 **** 0.06
22491 C 91.52887651009524 77.75958773410616 63.2396071937975 C 0.0 **** -0.24
22492 H 90.53187623368007 77.53732021436934 62.860588384083584 H 0.0 **** 0.06
22493 H 91.95185722733237 76.8642704081964 63.69696261211867 H 0.0 **** 0.06
22494 H 91.46503009972429 78.5523825505797 63.98574577228834 H 0.0 **** 0.06
22495 H 92.16624519781942 78.08418780176513 62.41808447005076 H 0.0 **** 0.06
22496 C 70.57147379539276 17.729724548843365 69.87506940805237 C 0.0 **** -0.24
22497 H 70.4788722539617 18.814610968868664 69.93104390527839 H 0.0 **** 0.06
22498 H 71.3248375985882 17.46771160254572 69.1314936218717 H 0.0 **** 0.06
22499 H 69.61267259418872 17.297942321640647 69.58915326017623 H 0.0 **** 0.06
22500 H 70.87061264441782 17.340821814048425 70.84861670456016 H 0.0 **** 0.06
22501 C 38.664771042374326 86.40633500027789 92.13337971658945 C 0.0 **** -0.24
22502 H 38.34336781735213 86.06112821077468 91.15051606150843 H 0.0 **** 0.06
22503 H 39.01824764359077 85.55675679606478 92.71840272043383 H 0.0 **** 0.06
22504 H 37.82507702429784 86.87623510258473 92.64614046973786 H 0.0 **** 0.06
22505 H 39.47181984161497 87.12959376157173 92.01828980600754 H 0.0 **** 0.06
22506 C 70.89680184704724 101.49760193256198 91.21289677803492 C 0.0 **** -0.24
22507 H 70.4289262092878 100.51553250619081 91.15240142982728 H 0.0 **** 0.06
22508 H 71.61499313150318 101.5080065838101 92.03365301223701 H 0.0 **** 0.06
22509 H 70.13204925067333 102.25427476115091 91.3899036509437 H 0.0 **** 0.06
22510 H 71.41112841103717 101.71410521996833 90.27727337128621 H 0.0 **** 0.06
22511 C 93.68660621179004 82.10351545282666 86.25036743744903 C 0.0 **** -0.24
22512 H 92.70041415460545 82.3662340248161 86.63509585470297 H 0.0 **** 0.06
22513 H 94.29901413924645 83.00325323803622 86.17891655912882 H 0.0 **** 0.06
22514 H 93.58384686009563 81.65270949138994 85.26357101329444 H 0.0 **** 0.06
22515 H 94.16163637156419 81.39353148289283 86.92687522334057 H 0.0 **** 0.06
22516 C 64.70994367736807 97.01175607786914 23.896820878672912 C 0.0 **** -0.24
22517 H 64.87884795389891 97.96768100511471 24.3935699412321 H 0.0 **** 0.06
22518 H 64.41987880364167 97.18713533091793 22.860896561563976 H 0.0 **** 0.06
22519 H 63.9161972312948 96.47058163946949 24.410686095690636 H 0.0 **** 0.06
22520 H 65.6265517750964 96.42299622347133 23.922610553787138 H 0.0 **** 0.06
22521 C 59.99687456109129 59.11365744274907 56.68784255652193 C 0.0 **** -0.24
22522 H 59.90704084302229 58.33582338059835 55.92951097673861 H 0.0 **** 0.06
22523 H 59.55847685860209 58.76104608024345 57.62272677437838 H 0.0 **** 0.06
22524 H 59.47029964543182 60.00820995820426 56.35479694793884 H 0.0 **** 0.06
22525 H 61.04920784603132 59.348053470422855 56.845137884498484 H 0.0 **** 0.06
22526 C 17.99156951924374 82.22592357707768 35.72699089321148 C 0.0 **** -0.24
22527 H 17.596121427402693 82.29286282368523 34.713671776872474 H 0.0 **** 0.06
22528 H 18.171595667610006 83.22859837459353 36.114621567914725 H 0.0 **** 0.06
22529 H 18.92770102980984 81.66729557263787 35.71485517435343 H 0.0 **** 0.06
22530 H 17.27082867999519 81.71270212321903 36.36476840869395 H 0.0 **** 0.06
22531 C 67.71529842361763 46.28978308890791 4.315542293669324 C 0.0 **** -0.24
22532 H 67.48389585406885 46.01043619844441 3.287478146321547 H 0.0 **** 0.06
22533 H 68.79680002641496 46.348781908843506 4.441308618246069 H 0.0 **** 0.06
22534 H 67.30988171564302 45.540905541165785 4.995592584276608 H 0.0 **** 0.06
22535 H 67.27025819069507 47.25928432882725 4.536897648232923 H 0.0 **** 0.06
22536 C 52.9760328669259 87.19834183170914 20.18369309601092 C 0.0 **** -0.24
22537 H 52.53329721412627 88.0406350555044 20.71487286986831 H 0.0 **** 0.06
22538 H 54.03607820467988 87.39102555903378 20.017531771979638 H 0.0 **** 0.06
22539 H 52.47546421994869 87.07195491876521 19.223843069310078 H 0.0 **** 0.06
22540 H 52.85892829890163 86.29226965846618 20.77693451046793 H 0.0 **** 0.06
22541 C 4.38730010008917 105.47773192408422 34.145016588681585 C 0.0 **** -0.24
22542 H 4.5012613333519695 106.53582773185391 34.38250942119641 H 0.0 **** 0.06
22543 H 5.313216720235431 105.10192135160437 33.7105899600994 H 0.0 **** 0.06
22544 H 3.5726172028747047 105.35209399171566 33.431862612848285 H 0.0 **** 0.06
22545 H 4.1611544438161285 104.92302357632639 35.05568475051597 H 0.0 **** 0.06
22546 C 56.0662841823473 51.48342598933859 98.03524573366074 C 0.0 **** -0.24
22547 H 55.725049805873624 52.4068812992542 97.56752135715497 H 0.0 **** 0.06
22548 H 56.49916304527681 51.70812602105477 99.00992131157705 H 0.0 **** 0.06
22549 H 56.81879697948555 51.01209895687882 97.4022843839778 H 0.0 **** 0.06
22550 H 55.22114745793038 50.80637145724193 98.15952680615244 H 0.0 **** 0.06
22551 C 35.36011249231923 33.16249884383126 26.54692446736607 C 0.0 **** -0.24
22552 H 36.32758242730121 33.64109708303084 26.695697164745553 H 0.0 **** 0.06
22553 H 35.50230848540103 32.204882129234704 26.045173257856135 H 0.0 **** 0.06
22554 H 34.727130779109686 33.80430040345925 25.934684657890273 H 0.0 **** 0.06
22555 H 34.88390501311277 32.99821311359025 27.513728666751547 H 0.0 **** 0.06
22556 C 76.23299555875548 93.42275203952013 19.719078328402063 C 0.0 **** -0.24
22557 H 77.07189850176336 92.7339608236305 19.817094686244985 H 0.0 **** 0.06
22558 H 75.29966279618998 92.88535676348823 19.890031614838023 H 0.0 **** 0.06
22559 H 76.22921401117698 93.84910200919788 18.71573834221033 H 0.0 **** 0.06
22560 H 76.33250474333212 94.22213084554457 20.453122698154687 H 0.0 **** 0.06
22561 C 19.957914900608955 20.15335249761085 8.178606879102404 C 0.0 **** -0.24
22562 H 18.971459731183472 19.849834777690496 8.528318006478116 H 0.0 **** 0.06
22563 H 20.175814191358626 19.65811015061152 7.231730604107497 H 0.0 **** 0.06
22564 H 20.7079253284341 19.87158239679899 8.917402966358395 H 0.0 **** 0.06
22565 H 19.975633573921073 21.233621752870743 8.03585859633165 H 0.0 **** 0.06
22566 C 55.36950539462987 14.415614856608457 50.576662329468974 C 0.0 **** -0.24
22567 H 55.693262972319644 14.294420802450333 49.542534301904794 H 0.0 **** 0.06
22568 H 56.231595951756134 14.329282323214471 51.239729727243 H 0.0 **** 0.06
22569 H 54.642072918509086 13.641991499399396 50.82272859211122 H 0.0 **** 0.06
22570 H 54.91268887185416 15.397095281367598 50.701079041505665 H 0.0 **** 0.06
22571 C 48.31477837396852 57.97899319470912 105.06267450234066 C 0.0 **** -0.24
22572 H 48.84138999513931 58.930487001073175 104.98915278804219 H 0.0 **** 0.06
22573 H 48.38712694457189 57.601099508834125 106.08240522362536 H 0.0 **** 0.06
22574 H 48.76358506681913 57.261468770974204 104.37490490719262 H 0.0 **** 0.06
22575 H 47.26619688000909 58.12373211110042 104.80231857092366 H 0.0 **** 0.06
22576 C 30.915967565730824 4.201893949093744 33.20712382281534 C 0.0 **** -0.24
22577 H 31.719221540550535 4.120199094495206 33.93890977353272 H 0.0 **** 0.06
22578 H 29.9543002263334 4.077910999729454 33.70615780452718 H 0.0 **** 0.06
22579 H 31.03478827344145 3.427105842743458 32.449085710340405 H 0.0 **** 0.06
22580 H 30.954817474336494 5.183033847551542 32.7329298402838 H 0.0 **** 0.06
22581 C 54.03233578217959 12.70087779392314 3.921441437669145 C 0.0 **** -0.24
22582 H 53.073439455363314 12.923170381775392 3.453497492029001 H 0.0 **** 0.06
22583 H 53.91532462395105 12.69884345231398 5.005369470466661 H 0.0 **** 0.06
22584 H 54.760131086238744 13.46149716580053 3.6359734915662614 H 0.0 **** 0.06
22585 H 54.38110446417744 11.72229031498958 3.591494985313844 H 0.0 **** 0.06
22586 C 19.546140229407143 17.603675730117672 21.24032131608192 C 0.0 **** -0.24
22587 H 19.093999473601258 18.579937664388975 21.065747334810546 H 0.0 **** 0.06
22588 H 20.48764690918918 17.729415838206208 21.774581818967576 H 0.0 **** 0.06
22589 H 19.733095587394757 17.114258966272217 20.284308947841264 H 0.0 **** 0.06
22590 H 18.868862924266097 16.99137820340068 21.835645508734626 H 0.0 **** 0.06
22591 C 5.501954878012047 87.9888953543941 57.07545197278756 C 0.0 **** -0.24
22592 H 5.148161606431955 87.1765696191174 56.44241972970798 H 0.0 **** 0.06
22593 H 6.208179362316491 87.59798193231329 57.80909047999637 H 0.0 **** 0.06
22594 H 4.65539012989467 88.44306636875345 57.5916094896501 H 0.0 **** 0.06
22595 H 5.997002405091575 88.73987100685208 56.45941362759379 H 0.0 **** 0.06
22596 C 57.91711897458879 25.611157829779398 26.419233196455195 C 0.0 **** -0.24
22597 H 58.67806631684911 24.85755962570083 26.62225930198332 H 0.0 **** 0.06
22598 H 58.37020989245755 26.602375329830643 26.4476095654219 H 0.0 **** 0.06
22599 H 57.13300079604852 25.547980449290684 27.172821243493786 H 0.0 **** 0.06
22600 H 57.487593231692415 25.436133013834933 25.432659999278243 H 0.0 **** 0.06
22601 C 46.89920433815553 42.760342168180244 95.74649482176739 C 0.0 **** -0.24
22602 H 46.01015651692927 42.90105567982357 95.13269490834153 H 0.0 **** 0.06
22603 H 47.25297712676985 41.73380631351171 95.64168669288463 H 0.0 **** 0.06
22604 H 46.655860602101825 42.95644191101249 96.79038772391527 H 0.0 **** 0.06
22605 H 47.67861924729698 43.448029891947044 95.41892393945358 H 0.0 **** 0.06
22606 C 5.473508117295552 60.56585983672943 35.40855738854165 C 0.0 **** -0.24
22607 H 5.615047731404843 59.542816323071236 35.75749897148242 H 0.0 **** 0.06
22608 H 4.996132248384669 61.15427223994874 36.19286018945547 H 0.0 **** 0.06
22609 H 4.840221762923775 60.56229675694317 34.52149403236234 H 0.0 **** 0.06
22610 H 6.44105604653015 61.00356427224165 35.16290613587114 H 0.0 **** 0.06
22611 C 76.4437195605891 51.37577345669655 57.12008642483347 C 0.0 **** -0.24
22612 H 77.15115228156006 51.21446548333293 57.93350783580481 H 0.0 **** 0.06
22613 H 76.21726139940318 50.42292765572597 56.641369075730836 H 0.0 **** 0.06
22614 H 76.88059921033008 52.05558669996108 56.388960028090644 H 0.0 **** 0.06
22615 H 75.52561499026098 51.810430657897996 57.51742368349933 H 0.0 **** 0.06
22616 C 71.73796362748351 91.67727572112932 103.75876188318 C 0.0 **** -0.24
22617 H 72.68749798057632 91.16569396643251 103.91575653954152 H 0.0 **** 0.06
22618 H 71.45741345198695 91.6096915362553 102.70745807205793 H 0.0 **** 0.06
22619 H 71.83821872817333 92.7242591850146 104.0423622741126 H 0.0 **** 0.06
22620 H 70.96685604000584 91.20758588754603 104.37147174303047 H 0.0 **** 0.06
22621 C 19.212878837629837 35.83669623203235 76.75182971851574 C 0.0 **** -0.24
22622 H 19.89205462283488 36.384176887209264 76.09879000808135 H 0.0 **** 0.06
22623 H 18.493256361978567 36.52923929652678 77.18981072124988 H 0.0 **** 0.06
22624 H 19.782487918630725 35.353441348527554 77.54531626347578 H 0.0 **** 0.06
22625 H 18.683827444137812 35.08023828340748 76.17245791375845 H 0.0 **** 0.06
22626 C 12.681466759202646 80.53528437964145 97.42295557002684 C 0.0 **** -0.24
22627 H 12.154142113920644 79.77505567443579 97.99988604830348 H 0.0 **** 0.06
22628 H 13.18638251450992 80.0649783235594 96.5792666502338 H 0.0 **** 0.06
22629 H 13.417002232499406 81.02767193379373 98.05934757770217 H 0.0 **** 0.06
22630 H 11.967199073056573 81.27263727199174 97.05533874000709 H 0.0 **** 0.06
22631 C 56.25450837116158 12.42699353682795 15.038908667329565 C 0.0 **** -0.24
22632 H 56.008011469233104 13.371658907179793 14.553541433394145 H 0.0 **** 0.06
22633 H 55.52195926208314 11.671272627742937 14.755448939799237 H 0.0 **** 0.06
22634 H 56.240389870753454 12.55953640236892 16.12061553736899 H 0.0 **** 0.06
22635 H 57.24758439044035 12.105925486184276 14.72468099440843 H 0.0 **** 0.06
22636 C 58.519778774923395 85.36867287327357 104.85887889805161 C 0.0 **** -0.24
22637 H 58.13335387493209 85.01420382750132 103.90353017673635 H 0.0 **** 0.06
22638 H 58.69721793407797 86.44321075466009 104.80259881343568 H 0.0 **** 0.06
22639 H 59.455599737503476 84.857959938731 105.08469764798048 H 0.0 **** 0.06
22640 H 57.79343432750702 85.1605755910754 105.64427049116705 H 0.0 **** 0.06
22641 C 26.879849330404113 48.161408937108966 5.5992154947524 C 0.0 **** -0.24
22642 H 25.822324858945535 47.940100457334054 5.452517536354321 H 0.0 **** 0.06
22643 H 26.991760986548684 49.19468966196376 5.925825928252948 H 0.0 **** 0.06
22644 H 27.41451004807294 48.01565133415824 4.659862308031464 H 0.0 **** 0.06
22645 H 27.288500325681582 47.49351479623293 6.357715660634099 H 0.0 **** 0.06
22646 C 64.12155116625132 102.44370796728288 68.15466707068845 C 0.0 **** -0.24
22647 H 64.03185120108775 103.5057468663023 67.92604728412863 H 0.0 **** 0.06
22648 H 64.1317723594916 102.3051016891888 69.23626245855911 H 0.0 **** 0.06
22649 H 65.0477679551166 102.05860628207576 67.72997331319192 H 0.0 **** 0.06
22650 H 63.27478429855698 101.9067258610071 67.72596105843331 H 0.0 **** 0.06
22651 C 9.592002725639219 30.763495535171643 25.97667360913242 C 0.0 **** -0.24
22652 H 9.594083178589955 30.107181746098576 25.106397451440287 H 0.0 **** 0.06
22653 H 10.618991016314027 31.0212821868085 26.239028115819732 H 0.0 **** 0.06
22654 H 9.1201942820297 30.250900733763395 26.815414989718644 H 0.0 **** 0.06
22655 H 9.036125456664735 31.671367706360783 25.746579712831263 H 0.0 **** 0.06
22656 C 79.3567414427647 38.705338518431645 83.32141019456995 C 0.0 **** -0.24
22657 H 79.47419216859635 39.38662553880647 84.16389106233973 H 0.0 **** 0.06
22658 H 79.75294875638178 39.17197096623886 82.41955509035279 H 0.0 **** 0.06
22659 H 78.29875682208501 38.48179126427672 83.17979828589185 H 0.0 **** 0.06
22660 H 79.89910265474032 37.78242814395121 83.52237133734255 H 0.0 **** 0.06
22661 C 88.29337485001153 16.788726787511767 88.62309393157463 C 0.0 **** -0.24
22662 H 88.75423380646814 17.66297424220598 88.16481339101655 H 0.0 **** 0.06
22663 H 88.82956187850831 15.89071564739056 88.31347764109691 H 0.0 **** 0.06
22664 H 87.25286370743353 16.71795083062883 88.30574389405179 H 0.0 **** 0.06
22665 H 88.33746909093665 16.88092494195667 89.70799156515622 H 0.0 **** 0.06
22666 C 31.023356512582097 25.799607721460376 80.04021048870493 C 0.0 **** -0.24
22667 H 30.691297316007052 25.013431819635045 80.71857533715229 H 0.0 **** 0.06
22668 H 30.974008902184437 26.762611758192264 80.54957361976153 H 0.0 **** 0.06
22669 H 30.37917663013971 25.81808372425013 79.16152590872218 H 0.0 **** 0.06
22670 H 32.05096163818337 25.60243100713967 79.73326945088553 H 0.0 **** 0.06
22671 C 101.92914944010083 53.56257555845616 78.07839963332862 C 0.0 **** -0.24
22672 H 100.88899763962263 53.59200310238822 78.40237330853955 H 0.0 **** 0.06
22673 H 102.56722565903166 53.31038731518555 78.92623134016435 H 0.0 **** 0.06
22674 H 102.21513111203987 54.539337952291646 77.68589676742113 H 0.0 **** 0.06
22675 H 102.04616813140265 52.80957247122194 77.29948137550201 H 0.0 **** 0.06
22676 C 96.47660959043192 55.5611194688767 9.902451389581898 C 0.0 **** -0.24
22677 H 96.5193716646446 55.1435487372691 8.895986861992483 H 0.0 **** 0.06
22678 H 95.72342247505857 55.02938498041356 10.484575385857212 H 0.0 **** 0.06
22679 H 96.21251876922152 56.61708167807587 9.845701460961848 H 0.0 **** 0.06
22680 H 97.44920822085055 55.45444655608584 10.382017302249864 H 0.0 **** 0.06
22681 C 92.91086559433825 99.55236888547805 58.34104360902745 C 0.0 **** -0.24
22682 H 92.10924537359267 98.89312810403305 58.672087805943114 H 0.0 **** 0.06
22683 H 93.04561392807125 99.44857969354797 57.26445529800052 H 0.0 **** 0.06
22684 H 93.83641063869607 99.28462053743024 58.851603048553 H 0.0 **** 0.06
22685 H 92.65246155383193 100.58496417056193 58.577648930234396 H 0.0 **** 0.06
22686 C 32.40737610413525 97.20345945520643 30.1108586642124 C 0.0 **** -0.24
22687 H 32.80546268861487 97.88628660188604 30.86104386715232 H 0.0 **** 0.06
22688 H 33.00209817413321 96.29025528779611 30.099218212413376 H 0.0 **** 0.06
22689 H 32.44974142900415 97.67694519270756 29.130541831576664 H 0.0 **** 0.06
22690 H 31.37237248412987 96.96121790543216 30.35309876829581 H 0.0 **** 0.06
22691 C 43.00374669773743 4.102583746681301 71.98159847626806 C 0.0 **** -0.24
22692 H 42.034264376770246 3.6083219309111056 71.91253304648825 H 0.0 **** 0.06
22693 H 43.79655748563411 3.359433354993036 71.89528935194164 H 0.0 **** 0.06
22694 H 43.08457385858873 4.610560709898559 72.94197914403554 H 0.0 **** 0.06
22695 H 43.09759681201919 4.8299809369617925 71.17565979316493 H 0.0 **** 0.06
22696 C 29.09650175234526 45.33662133347101 8.613713250866937 C 0.0 **** -0.24
22697 H 29.232470563868503 45.73603310028546 9.619380436912607 H 0.0 **** 0.06
22698 H 30.052411465306307 44.97374468721301 8.23455903671855 H 0.0 **** 0.06
22699 H 28.720797886128196 46.1230904029 7.958760779150012 H 0.0 **** 0.06
22700 H 28.38100302687991 44.51480359113621 8.642520920369051 H 0.0 **** 0.06
22701 C 39.678032726636985 45.93098096287903 8.451063457097689 C 0.0 **** -0.24
22702 H 38.7379202589816 46.116982011251025 7.931589807412678 H 0.0 **** 0.06
22703 H 39.480238097968396 45.76111283048408 9.509690320448357 H 0.0 **** 0.06
22704 H 40.332587954735004 46.795279384841166 8.337281155470933 H 0.0 **** 0.06
22705 H 40.15926138544546 45.050797244672424 8.025036118003953 H 0.0 **** 0.06
22706 C 59.93449818584838 14.535539212176559 50.39061730536787 C 0.0 **** -0.24
22707 H 58.91193261505444 14.36484264438593 50.72596489000995 H 0.0 **** 0.06
22708 H 60.04821347479327 15.576756960950604 50.089137400222626 H 0.0 **** 0.06
22709 H 60.15275381173865 13.884485516744633 49.54382671980437 H 0.0 **** 0.06
22710 H 60.62519378687131 14.315208937969032 51.20560070556712 H 0.0 **** 0.06
22711 C 26.141487160222535 83.71507880579813 54.87602686187782 C 0.0 **** -0.24
22712 H 25.645912794835144 83.90484482626971 53.9238275016134 H 0.0 **** 0.06
22713 H 26.197959987912203 84.64168051030134 55.447779286304694 H 0.0 **** 0.06
22714 H 27.14808820444366 83.33834479262998 54.691989985942 H 0.0 **** 0.06
22715 H 25.573640109679804 82.97469076471651 55.43936599352324 H 0.0 **** 0.06
22716 C 91.79386278432668 59.126982248644225 51.62025499040858 C 0.0 **** -0.24
22717 H 92.52011996628835 59.8793018679346 51.31403062471319 H 0.0 **** 0.06
22718 H 90.86359299386697 59.61681369877044 51.90775624203121 H 0.0 **** 0.06
22719 H 92.1870592186362 58.56601662517875 52.46789337179708 H 0.0 **** 0.06
22720 H 91.60487270327798 58.44543626617073 50.789985999162916 H 0.0 **** 0.06
22721 C 15.269588896215879 75.51644832618766 12.13920301433501 C 0.0 **** -0.24
22722 H 15.528382929538623 74.70974952404447 12.825171969079264 H 0.0 **** 0.06
22723 H 15.737768019410481 76.44230308938205 12.473491774878482 H 0.0 **** 0.06
22724 H 14.187048431815754 75.64299581312065 12.118645916663667 H 0.0 **** 0.06
22725 H 15.625704770341486 75.26946802762467 11.139240061488948 H 0.0 **** 0.06
22726 C 4.550379737562579 90.18689648109856 36.73008667436511 C 0.0 **** -0.24
22727 H 4.710231950825403 91.2628442029842 36.66372060798818 H 0.0 **** 0.06
22728 H 5.2593135384499305 89.67345144011414 36.080505450679766 H 0.0 **** 0.06
22729 H 3.5330415996277367 89.95029253867644 36.41887391529036 H 0.0 **** 0.06
22730 H 4.700366466464985 89.86095305286861 37.76039957357153 H 0.0 **** 0.06
22731 C 32.92561650768546 3.085996357763065 103.8073524496816 C 0.0 **** -0.24
22732 H 33.21856623770586 2.7561382343485397 104.80331967359356 H 0.0 **** 0.06
22733 H 32.3808478431102 4.027361512174383 103.88216872806694 H 0.0 **** 0.06
22734 H 32.28507942001437 2.3314973957250906 103.34881963576626 H 0.0 **** 0.06
22735 H 33.81571906219668 3.228267970370416 103.19446670153717 H 0.0 **** 0.06
22736 C 17.547840008793514 102.19845253200253 28.723189411319197 C 0.0 **** -0.24
22737 H 17.276348392737816 102.08524582009218 27.67340787626415 H 0.0 **** 0.06
22738 H 18.63035282471452 102.2896715343733 28.811000534404684 H 0.0 **** 0.06
22739 H 17.210053650469547 101.32667132809317 29.281932225778633 H 0.0 **** 0.06
22740 H 17.073750591846363 103.09428004788285 29.12623787997302 H 0.0 **** 0.06
22741 C 26.041520897772457 79.52401200490641 83.25394873011781 C 0.0 **** -0.24
22742 H 27.060513281651424 79.30095980667679 83.56819367907983 H 0.0 **** 0.06
22743 H 25.340241936562137 78.94709505653336 83.85702946357355 H 0.0 **** 0.06
22744 H 25.91998543619887 79.26056701617506 82.20340050941876 H 0.0 **** 0.06
22745 H 25.84459400153527 80.58852989607385 83.38670125636796 H 0.0 **** 0.06
22746 C 86.70888799560103 38.40333015517892 75.5313132664134 C 0.0 **** -0.24
22747 H 86.50425126962244 39.04221268589775 76.39091065405161 H 0.0 **** 0.06
22748 H 87.13096139148695 39.00323945225922 74.72458429991224 H 0.0 **** 0.06
22749 H 85.78127722165024 37.94022903485023 75.19345478073372 H 0.0 **** 0.06
22750 H 87.41891059266057 37.626888642547215 75.81694627985922 H 0.0 **** 0.06
22751 C 21.24345967471292 86.95945914483198 18.045184647010828 C 0.0 **** -0.24
22752 H 20.83261831122132 86.49100577787439 17.150773930820165 H 0.0 **** 0.06
22753 H 22.185172659638905 86.47869529924247 18.308202596106426 H 0.0 **** 0.06
22754 H 20.53725827625222 86.84949448260662 18.86821506519189 H 0.0 **** 0.06
22755 H 21.41547762253071 88.01873155443147 17.85339176298055 H 0.0 **** 0.06
22756 C 18.74053179766578 44.52821159611941 20.853812799637694 C 0.0 **** -0.24
22757 H 18.358206842230572 45.44203608003146 21.308970094148833 H 0.0 **** 0.06
22758 H 17.95594759398972 43.771180601639834 20.846925402019636 H 0.0 **** 0.06
22759 H 19.591688180404986 44.165181475907616 21.43000691480907 H 0.0 **** 0.06
22760 H 19.055146365119114 44.73581198984436 19.831035472894825 H 0.0 **** 0.06
22761 C 56.05268200855468 5.113814858047178 38.28297822196521 C 0.0 **** -0.24
22762 H 55.706919930937985 5.462944186681241 39.25566829606814 H 0.0 **** 0.06
22763 H 57.12689057221412 4.931831284328112 38.32414467833195 H 0.0 **** 0.06
22764 H 55.8409177321456 5.871385937048089 37.5287291663366 H 0.0 **** 0.06
22765 H 55.535583203146125 4.1896017395017395 38.024127559408555 H 0.0 **** 0.06
22766 C 16.10812493992933 3.587963116843298 28.361051289758485 C 0.0 **** -0.24
22767 H 16.300023170209098 3.448648760976539 29.424545176718873 H 0.0 **** 0.06
22768 H 16.530640890980628 2.752243369028463 27.802974686561555 H 0.0 **** 0.06
22769 H 16.56841250716468 4.5180423267875085 28.027877585227117 H 0.0 **** 0.06
22770 H 15.032134166874748 3.6333795982111496 28.189161892434857 H 0.0 **** 0.06
22771 C 18.22351540942658 71.44779447309443 85.84662799637303 C 0.0 **** -0.24
22772 H 18.636890453385988 71.03180606447086 84.92864196374808 H 0.0 **** 0.06
22773 H 18.400738216232583 72.52372590505416 85.87069887955099 H 0.0 **** 0.06
22774 H 18.705305974087143 70.98159126187576 86.70584863605917 H 0.0 **** 0.06
22775 H 17.151084668458456 71.25452900204743 85.88220185540806 H 0.0 **** 0.06
22776 C 12.550397898428571 8.814446352198672 31.370093309927768 C 0.0 **** -0.24
22777 H 11.838248841315703 9.125408782778408 30.605252262224354 H 0.0 **** 0.06
22778 H 13.514879713915263 8.609639309682137 30.905677979972893 H 0.0 **** 0.06
22779 H 12.184279360642307 7.913373831853164 31.86253747307839 H 0.0 **** 0.06
22780 H 12.662563950054619 9.61047420010064 32.10652740156931 H 0.0 **** 0.06
22781 C 63.128380295901536 97.46229199088634 75.23066098148324 C 0.0 **** -0.24
22782 H 62.229782809898325 97.4329444518359 75.84648235417644 H 0.0 **** 0.06
22783 H 62.94667498993468 98.08404448752897 74.35323247435983 H 0.0 **** 0.06
22784 H 63.385559384527596 96.4523934906308 74.91445923114688 H 0.0 **** 0.06
22785 H 63.95053582172585 97.88241814339821 75.80953401478645 H 0.0 **** 0.06
22786 C 44.569514298590896 15.721890390239324 36.422628398482374 C 0.0 **** -0.24
22787 H 44.38585586115308 16.784231066334385 36.26046922927151 H 0.0 **** 0.06
22788 H 45.29086278320551 15.598356036730863 37.23067935922367 H 0.0 **** 0.06
22789 H 44.96553047712142 15.278318482469558 35.51021031248521 H 0.0 **** 0.06
22790 H 43.634968024665596 15.228871104825856 36.69147590540109 H 0.0 **** 0.06
22791 C 9.552439904109917 1.629933671512572 14.640721181705121 C 0.0 **** -0.24
22792 H 9.21894274947492 1.9885567768634118 13.666501564909584 H 0.0 **** 0.06
22793 H 8.783736936494691 0.9902611909144285 15.075035124100111 H 0.0 **** 0.06
22794 H 9.732277845159501 2.4816460147776214 15.298000561741986 H 0.0 **** 0.06
22795 H 10.474636374322046 1.0621250652789858 14.5224388655325 H 0.0 **** 0.06
22796 C 67.77948880474767 42.111887753660994 25.82009430029612 C 0.0 **** -0.24
22797 H 68.3365534954769 42.700377658136915 25.09192384404463 H 0.0 **** 0.06
22798 H 67.81098205443071 41.059682047822434 25.53707479406866 H 0.0 **** 0.06
22799 H 66.74412694661348 42.450932913984445 25.844951563204773 H 0.0 **** 0.06
22800 H 68.22629272246968 42.236558394700126 26.80642699986636 H 0.0 **** 0.06
22801 C 97.83834509058619 49.99352354272782 4.94970233018269 C 0.0 **** -0.24
22802 H 98.76376352759121 49.417631192711255 4.932777917562399 H 0.0 **** 0.06
22803 H 97.0376343828849 49.38039647691217 5.362828526537889 H 0.0 **** 0.06
22804 H 97.58014570958198 50.293625366672735 3.933853567510303 H 0.0 **** 0.06
22805 H 97.97393235263698 50.880741321723704 5.567700214255213 H 0.0 **** 0.06
22806 C 89.47096259456475 63.13459069720902 26.695660730345082 C 0.0 **** -0.24
22807 H 90.0448502838978 64.06062163729354 26.643984894663138 H 0.0 **** 0.06
22808 H 88.53217755209008 63.3181449757774 27.217954866073487 H 0.0 **** 0.06
22809 H 90.04567401866586 62.38161170899778 27.235065156869087 H 0.0 **** 0.06
22810 H 89.26240571251546 62.77959909909352 25.68653948518658 H 0.0 **** 0.06
22811 C 106.69789320639727 47.94120662472475 86.42836045548431 C 0.0 **** -0.24
22812 H 107.65860543080528 48.02519453225571 85.92081465604403 H 0.0 **** 0.06
22813 H 106.17992070681801 47.04857157418052 86.07887108000233 H 0.0 **** 0.06
22814 H 106.09408566369915 48.822431669866866 86.20828400000465 H 0.0 **** 0.06
22815 H 106.85986051171686 47.87069885444593 87.50349575320159 H 0.0 **** 0.06
22816 C 57.520386341048834 93.51282136370818 66.31575362656632 C 0.0 **** -0.24
22817 H 58.22777694499871 92.69582793500811 66.17403922456157 H 0.0 **** 0.06
22818 H 57.72404600904332 94.29973671262863 65.58918311776593 H 0.0 **** 0.06
22819 H 57.62635094862179 93.91408270262747 67.3237295955793 H 0.0 **** 0.06
22820 H 56.5051724870367 93.14252768903728 66.1770450024999 H 0.0 **** 0.06
22821 C 2.0343288002325517 65.58795018370921 31.810221055560987 C 0.0 **** -0.24
22822 H 1.452387622122023 66.28149235567037 32.416210636240635 H 0.0 **** 0.06
22823 H 2.975504649744714 66.05669598838927 31.524068881664874 H 0.0 **** 0.06
22824 H 1.470313413431871 65.32641395172854 30.915412635633913 H 0.0 **** 0.06
22825 H 2.2375505969778793 64.68534222959619 32.38695974331577 H 0.0 **** 0.06
22826 C 88.95597144216305 8.820428053495508 94.08890792794446 C 0.0 **** -0.24
22827 H 88.42031771519873 8.942510456423335 95.03106064508682 H 0.0 **** 0.06
22828 H 88.3449061837672 8.242884650508762 93.39558004405785 H 0.0 **** 0.06
22829 H 89.89456412359368 8.296522913773257 94.27109715457468 H 0.0 **** 0.06
22830 H 89.164249543106 9.801311631024372 93.6613107357795 H 0.0 **** 0.06
22831 C 101.46963621605776 32.93104210228428 66.4014959987679 C 0.0 **** -0.24
22832 H 101.67920356543803 33.1116215279624 67.45586657403652 H 0.0 **** 0.06
22833 H 101.65182845371795 33.8431822451579 65.83283962027403 H 0.0 **** 0.06
22834 H 100.42803825651187 32.63086195731384 66.28538700888282 H 0.0 **** 0.06
22835 H 102.11936866751014 32.136911365992766 66.03345818934841 H 0.0 **** 0.06
22836 C 10.431390839804692 47.534599663127906 106.62015688979544 C 0.0 **** -0.24
22837 H 10.247634328634263 46.95775942158478 107.52655944187705 H 0.0 **** 0.06
22838 H 11.264730431423402 47.093122959020505 106.072042641168 H 0.0 **** 0.06
22839 H 10.676513324762936 48.562257386242834 106.88864578273069 H 0.0 **** 0.06
22840 H 9.538478323948482 47.523773491551744 105.99527151582804 H 0.0 **** 0.06
22841 C 72.33321106643405 80.09533685122452 74.18767834124267 C 0.0 **** -0.24
22842 H 73.08952742424884 79.31008883652873 74.1751539232465 H 0.0 **** 0.06
22843 H 71.7866316762881 80.05735581076863 75.13022178325245 H 0.0 **** 0.06
22844 H 71.64020385886585 79.94549628159115 73.35990028332529 H 0.0 **** 0.06
22845 H 72.81652560754239 81.06690088708032 74.08629258127489 H 0.0 **** 0.06
22846 C 28.078095401462605 75.12515664023297 97.68825400111943 C 0.0 **** -0.24
22847 H 27.32886147510422 75.12714643115581 98.48046629014503 H 0.0 **** 0.06
22848 H 28.23036097478888 76.14357585484262 97.33000515814459 H 0.0 **** 0.06
22849 H 27.735952726133434 74.49697755984744 96.86617486167764 H 0.0 **** 0.06
22850 H 29.017361647308178 74.73258862097364 98.07879082569076 H 0.0 **** 0.06
22851 C 13.141239850671667 56.16721283232478 63.4969772193528 C 0.0 **** -0.24
22852 H 13.826234986401104 56.853349501900354 63.995705472946895 H 0.0 **** 0.06
22853 H 12.1714829134568 56.64952729072452 63.372542604621685 H 0.0 **** 0.06
22854 H 13.025162146101962 55.26700130907827 64.100116395253 H 0.0 **** 0.06
22855 H 13.543249680937464 55.90086352452536 62.519783881103024 H 0.0 **** 0.06
22856 C 12.828226862587925 87.91756601633594 28.124878691773944 C 0.0 **** -0.24
22857 H 11.79885620983292 87.68658167767546 27.84918494590491 H 0.0 **** 0.06
22858 H 13.28619430080326 87.04125734784319 28.5830158158507 H 0.0 **** 0.06
22859 H 12.835980500734138 88.74508791482972 28.834387749455203 H 0.0 **** 0.06
22860 H 13.38848944920342 88.19856108635216 27.23275070683806 H 0.0 **** 0.06
22861 C 60.74113324718866 22.565111054164873 13.186380347529791 C 0.0 **** -0.24
22862 H 60.46190436648794 21.548640501900252 12.908968095641725 H 0.0 **** 0.06
22863 H 60.49911286351505 22.73418715652943 14.236357100729748 H 0.0 **** 0.06
22864 H 60.19223615877041 23.2750882867052 12.567125911576511 H 0.0 **** 0.06
22865 H 61.811593669915 22.701675063921414 13.033486746947801 H 0.0 **** 0.06
22866 C 91.18646725406751 35.090728653533404 41.176084568089124 C 0.0 **** -0.24
22867 H 91.63252864615019 34.589532941338916 40.31629455890331 H 0.0 **** 0.06
22868 H 91.38732642366855 36.16066344166252 41.11735747737552 H 0.0 **** 0.06
22869 H 91.61706434450646 34.688562081542244 42.09357731472477 H 0.0 **** 0.06
22870 H 90.1097092258779 34.922146863433014 41.17593162915918 H 0.0 **** 0.06
22871 C 31.317471778447377 40.049239904878505 67.87215014244916 C 0.0 **** -0.24
22872 H 31.529555578106056 39.66853002956108 68.87126683352417 H 0.0 **** 0.06
22873 H 30.67621303257532 40.92769074640154 67.94650107793083 H 0.0 **** 0.06
22874 H 30.812367425855854 39.277785736403615 67.28998795195801 H 0.0 **** 0.06
22875 H 32.25124107201766 40.321319564905394 67.38111223684416 H 0.0 **** 0.06
22876 C 14.570062407294685 72.57140440734901 8.25581509281787 C 0.0 **** -0.24
22877 H 14.908659566186287 73.52179386900002 7.843105088400732 H 0.0 **** 0.06
22878 H 15.252227088755902 72.2563511983762 9.045851522765233 H 0.0 **** 0.06
22879 H 14.55324800109382 71.81851299879327 7.468462908882348 H 0.0 **** 0.06
22880 H 13.567754717172733 72.69112958084014 8.667106820221482 H 0.0 **** 0.06
22881 C 102.26084146453692 27.637084367494822 101.49547076483712 C 0.0 **** -0.24
22882 H 102.47773139780703 28.26526285799318 102.35918091709335 H 0.0 **** 0.06
22883 H 101.52007808676389 28.128256665670307 100.86497566461998 H 0.0 **** 0.06
22884 H 101.87172539856863 26.676660157521155 101.8340704526061 H 0.0 **** 0.06
22885 H 103.17588277488107 27.476823159098473 100.92356033206053 H 0.0 **** 0.06
22886 C 8.651641279841584 82.55804924985303 57.67342749545816 C 0.0 **** -0.24
22887 H 9.140998611283194 83.44961831859128 58.06456132233899 H 0.0 **** 0.06
22888 H 8.87872788406699 81.70767685821912 58.31577797671244 H 0.0 **** 0.06
22889 H 9.01242358337521 82.35921921249978 56.663921435507376 H 0.0 **** 0.06
22890 H 7.572978929080293 82.71730576859561 57.648898638219805 H 0.0 **** 0.06
22891 C 92.89161490209177 31.079450756473207 102.49658922441704 C 0.0 **** -0.24
22892 H 93.3673112522076 31.006660759242543 101.51819086974736 H 0.0 **** 0.06
22893 H 91.91866406580358 31.55996221248852 102.39197500484589 H 0.0 **** 0.06
22894 H 93.52018111833557 31.670394073028866 103.16258187026233 H 0.0 **** 0.06
22895 H 92.76082607011524 30.080640537011796 102.9123031988753 H 0.0 **** 0.06
22896 C 63.351450981283776 49.22128423446151 102.91335598458244 C 0.0 **** -0.24
22897 H 62.86256542784507 49.599933051711155 103.81090191105397 H 0.0 **** 0.06
22898 H 62.709992533017 48.47938299730299 102.43607682786455 H 0.0 **** 0.06
22899 H 64.30093856308046 48.75943026789659 103.18359281007906 H 0.0 **** 0.06
22900 H 63.53103923330387 50.04455009837794 102.22291915131564 H 0.0 **** 0.06
22901 C 91.31536665366525 14.33345008083026 25.059318357435927 C 0.0 **** -0.24
22902 H 90.49571913859131 14.571031725982024 25.736701981941252 H 0.0 **** 0.06
22903 H 92.17024892035286 14.971480520183931 25.28500222875948 H 0.0 **** 0.06
22904 H 90.99737923290752 14.502214392553114 24.03070604303781 H 0.0 **** 0.06
22905 H 91.59844220285888 13.288145159334263 25.185046575430903 H 0.0 **** 0.06
22906 C 41.551621483790484 52.93890800932272 2.3944049141154693 C 0.0 **** -0.24
22907 H 40.88906074634423 53.67728681703383 2.8459641156311903 H 0.0 **** 0.06
22908 H 41.69664752205145 53.17671145123623 1.3406987557156071 H 0.0 **** 0.06
22909 H 41.10780399578499 51.9482791060386 2.486676589952623 H 0.0 **** 0.06
22910 H 42.5140677761479 52.95413631425248 2.9060668639667 H 0.0 **** 0.06
22911 C 52.12270072442041 71.58870768749958 6.650664763359174 C 0.0 **** -0.24
22912 H 53.0911208017383 71.47988370990072 6.16172342481056 H 0.0 **** 0.06
22913 H 52.099046037958324 70.97238752116297 7.549424808754367 H 0.0 **** 0.06
22914 H 51.333372804685865 71.27066088299962 5.969747469931974 H 0.0 **** 0.06
22915 H 51.96849857504166 72.63371596177197 6.922177520477703 H 0.0 **** 0.06
22916 C 39.82158290601575 74.96501298707244 74.96567730784318 C 0.0 **** -0.24
22917 H 40.497690848301716 75.59167168409616 74.38346972743173 H 0.0 **** 0.06
22918 H 38.96021479746673 75.5536930032083 75.27954109537436 H 0.0 **** 0.06
22919 H 40.34423276613029 74.58650350826358 75.84358867129288 H 0.0 **** 0.06
22920 H 39.48632531479012 74.12773473605472 74.35341658391695 H 0.0 **** 0.06
22921 C 40.705668129590435 80.32949952414856 63.375429415008995 C 0.0 **** -0.24
22922 H 41.37362832607221 80.72972843356149 62.612588860623646 H 0.0 **** 0.06
22923 H 41.273031986551814 80.12703924662796 64.28406125221458 H 0.0 **** 0.06
22924 H 40.255746678508046 79.40470862177227 63.01448180798424 H 0.0 **** 0.06
22925 H 39.922676556790066 81.0555127092829 63.58911295353664 H 0.0 **** 0.06
22926 C 83.99485159211838 87.22155280881303 26.482238180897127 C 0.0 **** -0.24
22927 H 83.06132804153077 87.6883651465115 26.795884021102466 H 0.0 **** 0.06
22928 H 84.68722073993774 87.19300969278859 27.323814663766 H 0.0 **** 0.06
22929 H 84.43438802443853 87.79853571776886 25.668526216799023 H 0.0 **** 0.06
22930 H 83.79474793990818 86.20571961484109 26.14156362393547 H 0.0 **** 0.06
22931 C 59.634958310061016 54.121054920255744 19.543438447851713 C 0.0 **** -0.24
22932 H 60.46786556949999 53.42366366400245 19.45922682337485 H 0.0 **** 0.06
22933 H 58.88379292695116 53.71013381174373 20.218439296769034 H 0.0 **** 0.06
22934 H 59.19211572935309 54.278054539492814 18.55955110301882 H 0.0 **** 0.06
22935 H 59.99436311652261 55.07220083987448 19.93622634652533 H 0.0 **** 0.06
22936 C 70.81162872464785 91.1513703609444 88.60909507682129 C 0.0 **** -0.24
22937 H 70.301232276266 91.2380201901071 89.56779781217901 H 0.0 **** 0.06
22938 H 71.85729458394525 90.89020887754177 88.77602428739097 H 0.0 **** 0.06
22939 H 70.75390354400429 92.10360276329567 88.08015458538739 H 0.0 **** 0.06
22940 H 70.33365942299505 90.37544656678725 88.01163521163048 H 0.0 **** 0.06
22941 C 56.34185556799247 80.6762991228531 56.31360906438857 C 0.0 **** -0.24
22942 H 56.80665812009147 79.72524220002578 56.05293677451124 H 0.0 **** 0.06
22943 H 55.60715435801663 80.51679744827769 57.10241704155828 H 0.0 **** 0.06
22944 H 55.84844281737318 81.09207416971145 55.43549879626676 H 0.0 **** 0.06
22945 H 57.106969278905865 81.37038573155863 56.66409955437888 H 0.0 **** 0.06
22946 C 53.69411107676024 30.358560452657457 84.84326404528207 C 0.0 **** -0.24
22947 H 52.94854530060747 29.65628203387817 84.47052097220325 H 0.0 **** 0.06
22948 H 53.219079551571156 31.317186283106565 85.04989230622101 H 0.0 **** 0.06
22949 H 54.47357440776154 30.49345833143545 84.09233977723079 H 0.0 **** 0.06
22950 H 54.13580467054489 29.966140096136172 85.75878449927939 H 0.0 **** 0.06
22951 C 31.692369496934596 105.10573167672386 52.943104632063466 C 0.0 **** -0.24
22952 H 31.080638384047894 105.99747215823437 52.80366037314849 H 0.0 **** 0.06
22953 H 31.349390881837806 104.56450859022956 53.82539539396623 H 0.0 **** 0.06
22954 H 32.7337201091252 105.39718479400003 53.07591893559845 H 0.0 **** 0.06
22955 H 31.603445140359582 104.4646669617131 52.06604180784694 H 0.0 **** 0.06
22956 C 60.90386199775516 41.99012994832458 9.975521397293576 C 0.0 **** -0.24
22957 H 59.822056182013554 41.950725913413066 9.848666364885943 H 0.0 **** 0.06
22958 H 61.24245931818329 43.02192599255579 9.883193341273639 H 0.0 **** 0.06
22959 H 61.381103190781104 41.38037291302908 9.20811607678229 H 0.0 **** 0.06
22960 H 61.16777199051606 41.607568640607155 10.960782279557662 H 0.0 **** 0.06
22961 C 34.042475413612934 34.53842014999756 92.0576413890268 C 0.0 **** -0.24
22962 H 34.067981903485816 33.463743865936124 92.23699855902362 H 0.0 **** 0.06
22963 H 34.21317082856835 35.06822354319414 92.99516748386847 H 0.0 **** 0.06
22964 H 33.06825412269396 34.81634876329059 91.65507054572046 H 0.0 **** 0.06
22965 H 34.81989050807799 34.80586546992714 91.34100860879911 H 0.0 **** 0.06
22966 C 24.327820031773513 33.25678406276728 47.440461434208885 C 0.0 **** -0.24
22967 H 23.252785209351543 33.16251341669718 47.28464449583811 H 0.0 **** 0.06
22968 H 24.539531933447563 34.19194492732433 47.96030468328706 H 0.0 **** 0.06
22969 H 24.835710033196392 33.25316533821871 46.47619469543355 H 0.0 **** 0.06
22970 H 24.681629320049183 32.41894008614054 48.04051153641905 H 0.0 **** 0.06
22971 C 11.291203144472837 104.04075931690488 6.519519065895773 C 0.0 **** -0.24
22972 H 10.994352124605992 105.02685142926612 6.164070803622055 H 0.0 **** 0.06
22973 H 10.559092094136988 103.67865079594219 7.241240986851569 H 0.0 **** 0.06
22974 H 12.270390667886725 104.10640565923802 6.994917957279716 H 0.0 **** 0.06
22975 H 11.343213497620463 103.35110513126295 5.676846086892242 H 0.0 **** 0.06
22976 C 55.770371142627816 3.753649912825371 55.991729637921935 C 0.0 **** -0.24
22977 H 56.00252734533215 2.7071558325517033 56.18914124057619 H 0.0 **** 0.06
22978 H 55.027838712187254 4.103003768271868 56.71007651901982 H 0.0 **** 0.06
22979 H 55.373924943062384 3.8526914326214703 54.98133620715339 H 0.0 **** 0.06
22980 H 56.67673061115331 4.351011585298475 56.086857026029236 H 0.0 **** 0.06
22981 C 29.98126866685746 76.80781715017525 8.158994181976297 C 0.0 **** -0.24
22982 H 29.315974804399616 76.89556564330024 9.018792445126351 H 0.0 **** 0.06
22983 H 29.894891871775826 77.70118256558035 7.5403820275520985 H 0.0 **** 0.06
22984 H 29.701779958538026 75.93137144267277 7.57337251005724 H 0.0 **** 0.06
22985 H 31.009797229167788 76.7013757502643 8.504396774092854 H 0.0 **** 0.06
22986 C 76.88630191257835 13.739806045237955 72.63315135045123 C 0.0 **** -0.24
22987 H 77.5036857827592 13.387585686416003 71.80706560330965 H 0.0 **** 0.06
22988 H 75.87060981304006 13.362760258202456 72.51404326896498 H 0.0 **** 0.06
22989 H 76.87191707449028 14.830768072075372 72.63657863303511 H 0.0 **** 0.06
22990 H 77.30004115904694 13.379333781294193 73.5755569653053 H 0.0 **** 0.06
22991 C 86.5984387084265 21.498758962199815 50.804900294474706 C 0.0 **** -0.24
22992 H 86.04178825208454 21.773801261885723 51.70009616912096 H 0.0 **** 0.06
22993 H 86.37485530400745 20.464748735850662 50.5408982956286 H 0.0 **** 0.06
22994 H 87.66638347775728 21.60352682989631 50.99479854379504 H 0.0 **** 0.06
22995 H 86.30979486396721 22.154791694406214 49.98247729907116 H 0.0 **** 0.06
22996 C 56.10020057769451 93.32815741820288 18.733545192528823 C 0.0 **** -0.24
22997 H 56.76215129450439 92.83867433615684 19.447209134094464 H 0.0 **** 0.06
22998 H 55.19729611723131 92.7311142806359 18.60710265542332 H 0.0 **** 0.06
22999 H 56.60917761384939 93.42623139500782 17.77439994619624 H 0.0 **** 0.06
23000 H 55.83353425302531 94.31762276275784 19.105832904291333 H 0.0 **** 0.06
23001 C 28.943914940347327 103.1281045365443 18.427834482118573 C 0.0 **** -0.24
23002 H 29.055674586532774 102.04308230399062 18.430887435762696 H 0.0 **** 0.06
23003 H 29.415003893003558 103.5435095958768 19.31935991526507 H 0.0 **** 0.06
23004 H 27.88442980998434 103.38320004170191 18.422521628861038 H 0.0 **** 0.06
23005 H 29.422109487691102 103.53989067927057 17.53886886241468 H 0.0 **** 0.06
23006 C 18.275243162487527 56.89963531852507 11.143157104241347 C 0.0 **** -0.24
23007 H 18.61910073642217 56.85538316911865 12.1765313933413 H 0.0 **** 0.06
23008 H 17.57734330790133 57.72823777732035 11.027405573769222 H 0.0 **** 0.06
23009 H 17.77663391446231 55.96459059839758 10.886722077485272 H 0.0 **** 0.06
23010 H 19.12955983761958 57.04800924170871 10.48288754404215 H 0.0 **** 0.06
23011 C 8.488194693100013 46.95385612323332 102.94244810960541 C 0.0 **** -0.24
23012 H 8.295738724733525 47.84117356457597 103.54585691207095 H 0.0 **** 0.06
23013 H 8.007462764220634 47.064767193491036 101.96995270980429 H 0.0 **** 0.06
23014 H 8.087535702633545 46.07593928604612 103.44866454634104 H 0.0 **** 0.06
23015 H 9.563085349267084 46.83543306123627 102.80473182259894 H 0.0 **** 0.06
23016 C 32.018134043440796 58.54131819167505 104.5022945655413 C 0.0 **** -0.24
23017 H 32.70917893372268 57.73816891708467 104.75930222024623 H 0.0 **** 0.06
23018 H 32.18282710682047 59.38834129225109 105.16796922365619 H 0.0 **** 0.06
23019 H 30.99346935704085 58.18685443447067 104.61148891091489 H 0.0 **** 0.06
23020 H 32.188033545694054 58.84969184958383 103.47079490651676 H 0.0 **** 0.06
23021 C 19.573330697789203 85.876103469512 62.158750886762505 C 0.0 **** -0.24
23022 H 20.594434262839982 86.20652940381578 62.35078980663957 H 0.0 **** 0.06
23023 H 19.28402354960744 86.15864201659619 61.14629591333494 H 0.0 **** 0.06
23024 H 18.898995607427608 86.34507349293173 62.87506855028698 H 0.0 **** 0.06
23025 H 19.517017380103596 84.79161181619597 62.26322800576372 H 0.0 **** 0.06
23026 C 82.40655850380219 100.01083148011442 81.30988066375289 C 0.0 **** -0.24
23027 H 81.58280754622174 99.29920340466161 81.36183766437225 H 0.0 **** 0.06
23028 H 83.35396561841696 99.47661982721016 81.39056795794201 H 0.0 **** 0.06
23029 H 82.32059639350655 100.72569567510868 82.12855485455412 H 0.0 **** 0.06
23030 H 82.36886445706352 100.54180701347711 80.3585621781435 H 0.0 **** 0.06
23031 C 72.91915063436161 87.39383060521675 11.354646561814704 C 0.0 **** -0.24
23032 H 72.62911277691438 86.3450202425094 11.41780170499294 H 0.0 **** 0.06
23033 H 72.49083425677277 87.94107019052473 12.19377562006224 H 0.0 **** 0.06
23034 H 72.5508549476187 87.81642994269379 10.419420476770057 H 0.0 **** 0.06
23035 H 74.00577912302022 87.47289152605592 11.384589787697493 H 0.0 **** 0.06
23036 C 29.47891099102435 45.9496292098292 16.24157440753487 C 0.0 **** -0.24
23037 H 30.066497457726328 45.0747909327151 15.966336764983794 H 0.0 **** 0.06
23038 H 28.957793786469352 46.32856048587789 15.363014446828203 H 0.0 **** 0.06
23039 H 30.140601916076122 46.72336677330969 16.633823198426796 H 0.0 **** 0.06
23040 H 28.752267902099078 45.67289986447193 17.005859319377805 H 0.0 **** 0.06
23041 C 14.898614306850021 4.98506872997028 92.78715815441093 C 0.0 **** -0.24
23042 H 14.280853065429312 4.33996555985577 93.41152313861323 H 0.0 **** 0.06
23043 H 14.397034300799447 5.943113259221818 92.6481764488477 H 0.0 **** 0.06
23044 H 15.052381875554275 4.511534177115024 91.81780979478202 H 0.0 **** 0.06
23045 H 15.862267297817652 5.14494630226983 93.27022932567318 H 0.0 **** 0.06
23046 C 57.05286742688074 14.000365640493328 62.728811336223856 C 0.0 **** -0.24
23047 H 56.83932740455748 13.07599295435881 63.265038415263234 H 0.0 **** 0.06
23048 H 56.32606854451754 14.131629437153236 61.927133776410216 H 0.0 **** 0.06
23049 H 58.05603478270962 13.949412879269659 62.30533195352899 H 0.0 **** 0.06
23050 H 56.991850873196114 14.842778877435649 63.41774719802311 H 0.0 **** 0.06
23051 C 65.4129636247356 52.556311127840445 95.81557456385775 C 0.0 **** -0.24
23052 H 64.68863266095889 51.78542090911958 96.07841601555299 H 0.0 **** 0.06
23053 H 64.90607660153304 53.51912362610233 95.7374116831146 H 0.0 **** 0.06
23054 H 65.87355553390586 52.30961107573586 94.85938271688593 H 0.0 **** 0.06
23055 H 66.18095329548848 52.61041518635045 96.58631593600205 H 0.0 **** 0.06
23056 C 32.48526240125851 17.382710229481404 66.16814694529124 C 0.0 **** -0.24
23057 H 32.626784733323206 16.35481667396948 66.50073518046294 H 0.0 **** 0.06
23058 H 32.204750778184085 17.38868442908418 65.11421985617413 H 0.0 **** 0.06
23059 H 33.413929778840846 17.93840848062112 66.30035923839095 H 0.0 **** 0.06
23060 H 31.695837044687956 17.849697076424405 66.75668205663193 H 0.0 **** 0.06
23061 C 10.32518140171436 103.94744256202017 89.11337655958454 C 0.0 **** -0.24
23062 H 10.237564101551811 104.71011260889117 89.88666452625836 H 0.0 **** 0.06
23063 H 9.571911868071084 104.12206552638474 88.34434951655834 H 0.0 **** 0.06
23064 H 10.172590916043816 102.96243867775138 89.55492634888901 H 0.0 **** 0.06
23065 H 11.318369039498634 103.99594964361043 88.66643349132289 H 0.0 **** 0.06
23066 C 60.99567512184227 57.97104161732554 52.76101784840097 C 0.0 **** -0.24
23067 H 60.99038791445582 56.886269201154136 52.86231695010045 H 0.0 **** 0.06
23068 H 60.72526460485341 58.426638725624315 53.71324949236964 H 0.0 **** 0.06
23069 H 60.27546311405006 58.26825102426423 51.99858690041282 H 0.0 **** 0.06
23070 H 61.99136138764965 58.30309977546352 52.46793267025731 H 0.0 **** 0.06
23071 C 77.11392491042008 23.870818815466663 20.19599750261832 C 0.0 **** -0.24
23072 H 78.14711521871456 23.727861128441617 20.513381527304364 H 0.0 **** 0.06
23073 H 77.04807696633748 24.754733947517536 19.560977163378304 H 0.0 **** 0.06
23074 H 76.47925058531115 24.00335897105387 21.072297864183888 H 0.0 **** 0.06
23075 H 76.78232959631842 22.9956500930611 19.63589926966515 H 0.0 **** 0.06
23076 C 28.000391647176684 8.887733631877097 9.60315783426222 C 0.0 **** -0.24
23077 H 27.57267215987156 9.305552562407513 8.691870238464332 H 0.0 **** 0.06
23078 H 28.744279299292316 8.134063180284272 9.342227227032012 H 0.0 **** 0.06
23079 H 27.21170027442605 8.42963847003756 10.19842446543332 H 0.0 **** 0.06
23080 H 28.475266766380116 9.68293404203132 10.178732055104078 H 0.0 **** 0.06
23081 C 27.958579523374453 80.51722087942774 65.34561932640312 C 0.0 **** -0.24
23082 H 27.81504334162412 80.59762109817669 66.42337945791783 H 0.0 **** 0.06
23083 H 27.001360259872598 80.31389598035867 64.8658173242763 H 0.0 **** 0.06
23084 H 28.65281558446617 79.70353825357935 65.13195216339011 H 0.0 **** 0.06
23085 H 28.36692953416545 81.45215064665933 64.96301213070366 H 0.0 **** 0.06
23086 C 92.50042660598119 35.66133326669541 28.440991463239016 C 0.0 **** -0.24
23087 H 92.94477234776211 36.622857478773994 28.18255038859394 H 0.0 **** 0.06
23088 H 92.75839179957072 34.9256057140355 27.679247651932883 H 0.0 **** 0.06
23089 H 91.41724227766872 35.76544155900501 28.494262742991225 H 0.0 **** 0.06
23090 H 92.88192678315437 35.33248064987981 29.407198086514455 H 0.0 **** 0.06
23091 C 42.90243760601578 40.920233139589214 83.93754329496818 C 0.0 **** -0.24
23092 H 42.76816067590431 41.800233250183595 83.3083245492947 H 0.0 **** 0.06
23093 H 41.927506020230254 40.496620927896174 84.18063555573431 H 0.0 **** 0.06
23094 H 43.41544352831002 41.20518551025691 84.8564153235248 H 0.0 **** 0.06
23095 H 43.49756356710063 40.17947852797491 83.40357382104071 H 0.0 **** 0.06
23096 C 89.35299225417592 45.07262211523584 42.546444617327765 C 0.0 **** -0.24
23097 H 88.86954115656592 44.10255796055507 42.65635012508597 H 0.0 **** 0.06
23098 H 90.04855365626418 45.22777381448929 43.37135128159313 H 0.0 **** 0.06
23099 H 88.59678046100017 45.85810621048382 42.5557829944663 H 0.0 **** 0.06
23100 H 89.89655845760012 45.102242608584135 41.60147151083069 H 0.0 **** 0.06
23101 C 11.826455761030445 81.28191364084529 105.8838470277409 C 0.0 **** -0.24
23102 H 11.35905811308703 80.79668892092661 106.74055415713312 H 0.0 **** 0.06
23103 H 12.804388199719313 81.66719837105444 106.17414786115435 H 0.0 **** 0.06
23104 H 11.197614366456776 82.10475481145065 105.54517081861022 H 0.0 **** 0.06
23105 H 11.944894270266445 80.55903403192065 105.07692319015385 H 0.0 **** 0.06
23106 C 82.11036212591287 102.23244300267896 69.3587101308577 C 0.0 **** -0.24
23107 H 82.40023595054205 103.06653736980088 68.71825049599181 H 0.0 **** 0.06
23108 H 81.9972347675004 101.33295678398568 68.75299693075101 H 0.0 **** 0.06
23109 H 81.16393045486956 102.46298368173207 69.84709702916547 H 0.0 **** 0.06
23110 H 82.87867339562996 102.07011077172673 70.11381653974286 H 0.0 **** 0.06
23111 C 23.55082729042641 98.21144501664446 79.80577056916931 C 0.0 **** -0.24
23112 H 24.072084265925582 97.41564195479239 80.33772672739056 H 0.0 **** 0.06
23113 H 22.495021887087034 98.1997908502658 80.07845333221374 H 0.0 **** 0.06
23114 H 23.651085351531833 98.05718799801896 78.73134616198885 H 0.0 **** 0.06
23115 H 23.98438885244485 99.1739725000849 80.07645471076896 H 0.0 **** 0.06
23116 C 29.245230540058813 0.16400183456022432 97.17011670072162 C 0.0 **** -0.24
23117 H 29.16372090896293 0.08255084069364216 98.25418802710628 H 0.0 **** 0.06
23118 H 30.017920970441132 -0.5146981946460016 96.81142965705743 H 0.0 **** 0.06
23119 H 29.506636210301544 1.1878229509514995 96.90078577127788 H 0.0 **** 0.06
23120 H 28.290152088280575 -0.09840769257871784 96.71361460948073 H 0.0 **** 0.06
23121 C 4.772469446570483 60.01161376966078 12.098967978427424 C 0.0 **** -0.24
23122 H 4.146418501466542 60.82691746806246 11.736094981966005 H 0.0 **** 0.06
23123 H 4.146730251906831 59.14849636859465 12.328015048013185 H 0.0 **** 0.06
23124 H 5.297790822791399 60.33001494994406 12.999282833589348 H 0.0 **** 0.06
23125 H 5.497326342142969 59.74133654158156 11.330960545252822 H 0.0 **** 0.06
23126 C 20.99934530446606 76.41006947888954 64.87408121356884 C 0.0 **** -0.24
23127 H 21.554914811710518 77.261155147983 65.267571240895 H 0.0 **** 0.06
23128 H 20.06990359037036 76.76006047276437 64.42401883029675 H 0.0 **** 0.06
23129 H 20.772644685447162 75.71717095613934 65.68423561997986 H 0.0 **** 0.06
23130 H 21.599979957051346 75.90345024929942 64.11861071098622 H 0.0 **** 0.06
23131 C 86.78156788819982 29.429750846666025 42.161765259804824 C 0.0 **** -0.24
23132 H 86.62591412555685 29.832372197728432 41.16059460129483 H 0.0 **** 0.06
23133 H 87.85065515381396 29.323472994799886 42.34819805007396 H 0.0 **** 0.06
23134 H 86.30038150581888 28.454928853997785 42.239562718736636 H 0.0 **** 0.06
23135 H 86.34970519033669 30.108696720021157 42.897427440923195 H 0.0 **** 0.06
23136 C 1.4194088909864035 48.924590411035354 62.68389776954629 C 0.0 **** -0.24
23137 H 2.3993623357127802 49.302629926370344 62.97280954390803 H 0.0 **** 0.06
23138 H 0.7831504154586355 49.75699824971565 62.384361428460195 H 0.0 **** 0.06
23139 H 0.9659778058459239 48.40664071742469 63.529074719940496 H 0.0 **** 0.06
23140 H 1.5281673376946685 48.23194602500581 61.84919478538632 H 0.0 **** 0.06
23141 C 60.86501407777051 28.806181144943054 76.66910712403276 C 0.0 **** -0.24
23142 H 60.70449193108192 28.450149351905935 77.68746549811314 H 0.0 **** 0.06
23143 H 60.21532146820812 28.258610249687536 75.98643199678504 H 0.0 **** 0.06
23144 H 61.906449307207794 28.645728875015237 76.38952984073526 H 0.0 **** 0.06
23145 H 60.63372437826024 29.869577579018113 76.6162510928346 H 0.0 **** 0.06
23146 C 42.87454209255935 97.06119990887272 46.15538867271442 C 0.0 **** -0.24
23147 H 43.79284353096489 97.15621332339151 45.575712351812 H 0.0 **** 0.06
23148 H 42.21822035398466 96.33288052336245 45.678434395439524 H 0.0 **** 0.06
23149 H 42.37312175103628 98.02828964023341 46.2017226068358 H 0.0 **** 0.06
23150 H 43.11439014461402 96.72814131423866 47.16454155202251 H 0.0 **** 0.06
23151 C 26.43781869454267 30.61770641405826 68.18398217152786 C 0.0 **** -0.24
23152 H 27.400845702694824 30.114205396278237 68.27358938992538 H 0.0 **** 0.06
23153 H 25.90965719326499 30.56254586504633 69.13634055483033 H 0.0 **** 0.06
23154 H 25.844866081137354 30.132746333004746 67.40952716685318 H 0.0 **** 0.06
23155 H 26.59973238659194 31.662441074697597 67.9179273473752 H 0.0 **** 0.06
23156 C 80.1283133441438 52.77968501968161 84.10745247711172 C 0.0 **** -0.24
23157 H 81.06740296083387 52.50221854294911 84.58538522999376 H 0.0 **** 0.06
23158 H 80.32451267525806 53.50082413122505 83.31299543925692 H 0.0 **** 0.06
23159 H 79.46200209697344 53.224486334147414 84.84652339194382 H 0.0 **** 0.06
23160 H 79.65986732781329 51.891776310319706 83.6842750844695 H 0.0 **** 0.06
23161 C 33.24160910449885 62.376805168119205 6.31398613912711 C 0.0 **** -0.24
23162 H 33.83833462319495 63.20112182495879 5.922572747391769 H 0.0 **** 0.06
23163 H 32.96967192025562 61.705655055321955 5.498373197277829 H 0.0 **** 0.06
23164 H 32.33738546409319 62.770636873770485 6.777235388625726 H 0.0 **** 0.06
23165 H 33.82275714607931 61.830021179950535 7.05761911626125 H 0.0 **** 0.06
23166 C 97.1661213531765 73.99286887592044 83.40313121466335 C 0.0 **** -0.24
23167 H 96.62182300292568 73.27274248580065 84.01421058980297 H 0.0 **** 0.06
23168 H 96.850392765182 75.00273508520232 83.66444021041522 H 0.0 **** 0.06
23169 H 96.95718536842435 73.80722757548145 82.34950709977238 H 0.0 **** 0.06
23170 H 98.2358597860134 73.88779204803078 83.58622214757618 H 0.0 **** 0.06
23171 C 77.19482173526794 28.250172491490275 37.10494562602119 C 0.0 **** -0.24
23172 H 77.83494297231434 28.701905631338832 37.86301798235405 H 0.0 **** 0.06
23173 H 76.39700843938968 27.688201901732214 37.590656151319536 H 0.0 **** 0.06
23174 H 77.78663641606951 27.577471229109733 36.483540653482606 H 0.0 **** 0.06
23175 H 76.76104602378385 29.032218890625188 36.482856639749514 H 0.0 **** 0.06
23176 C 51.791872457103665 52.57105761946997 40.85735041267443 C 0.0 **** -0.24
23177 H 50.90780656710368 51.970955938686416 41.06898714774708 H 0.0 **** 0.06
23178 H 51.523814570808014 53.38899710844021 40.18837307117521 H 0.0 **** 0.06
23179 H 52.550125549973956 51.94666468053646 40.38285436653863 H 0.0 **** 0.06
23180 H 52.18690192915213 52.977239878961825 41.78846715687431 H 0.0 **** 0.06
23181 C 80.46556986658575 37.5584822802819 22.42110134377546 C 0.0 **** -0.24
23182 H 79.77812349348142 36.87522162225687 22.918996944169606 H 0.0 **** 0.06
23183 H 80.02856589610334 38.55661691495721 22.390466529393535 H 0.0 **** 0.06
23184 H 80.64927320074241 37.21050745526101 21.404298834972963 H 0.0 **** 0.06
23185 H 81.40677220140978 37.590749410236924 22.96959536217787 H 0.0 **** 0.06
23186 C 98.31876023224754 43.775445494090754 95.65310689323215 C 0.0 **** -0.24
23187 H 97.85817687337419 44.308662457041535 94.82277066824754 H 0.0 **** 0.06
23188 H 99.28143267862771 44.23056754247405 95.88858395274875 H 0.0 **** 0.06
23189 H 98.46831427029844 42.73179497529142 95.37628403246832 H 0.0 **** 0.06
23190 H 97.66715176660779 43.83008597210345 96.52603335116568 H 0.0 **** 0.06
23191 C 28.60906817835435 35.75386874685111 65.93576440362867 C 0.0 **** -0.24
23192 H 29.096083325898306 36.64256308716834 65.53322575444317 H 0.0 **** 0.06
23193 H 29.074332553678133 34.86257413844915 65.51422115419018 H 0.0 **** 0.06
23194 H 27.550958440733286 35.770840114416416 65.67514120900759 H 0.0 **** 0.06
23195 H 28.71582517474738 35.74148158954901 67.0209225746425 H 0.0 **** 0.06
23196 C 40.23981732603394 5.899872585797468 28.884249239975404 C 0.0 **** -0.24
23197 H 40.23539481532873 6.932208878597038 28.535867435875637 H 0.0 **** 0.06
23198 H 41.22329856848705 5.657102458592689 29.287405594528757 H 0.0 **** 0.06
23199 H 40.013610791365636 5.233713745679495 28.05124279073089 H 0.0 **** 0.06
23200 H 39.48696512895438 5.776465260320876 29.66248113876639 H 0.0 **** 0.06
23201 C 75.54157889641749 55.32403313579151 47.40853523737172 C 0.0 **** -0.24
23202 H 75.25496166578199 56.34968287147676 47.640446600314135 H 0.0 **** 0.06
23203 H 76.39644641162107 55.03820170380173 48.022008680579006 H 0.0 **** 0.06
23204 H 75.80991624187828 55.251061136708024 46.354915365995 H 0.0 **** 0.06
23205 H 74.70499126638879 54.657186831179594 47.61677030259855 H 0.0 **** 0.06
23206 C 7.956827361700618 15.02436436306066 47.87589184057006 C 0.0 **** -0.24
23207 H 8.592022029000745 15.91008755988899 47.89383256469404 H 0.0 **** 0.06
23208 H 7.681675877717723 14.753025233725182 48.89512853949614 H 0.0 **** 0.06
23209 H 8.497890389106757 14.198884050596838 47.41317295252651 H 0.0 **** 0.06
23210 H 7.055231076688656 15.235261329437744 47.30058468239517 H 0.0 **** 0.06
23211 C 23.414824710305197 44.05101157553105 31.714056727884156 C 0.0 **** -0.24
23212 H 23.39598831965185 42.98841265372897 31.46949899799546 H 0.0 **** 0.06
23213 H 24.410813134153386 44.32428718270935 32.063503777965025 H 0.0 **** 0.06
23214 H 22.6858203347457 44.25603474111198 32.4975226124875 H 0.0 **** 0.06
23215 H 23.16842662471055 44.63270103653677 30.826053327194415 H 0.0 **** 0.06
23216 C 63.7306603124473 35.28032024293739 81.20431675871683 C 0.0 **** -0.24
23217 H 63.99376148498919 35.82683620257552 82.10941495239061 H 0.0 **** 0.06
23218 H 63.05571983502864 34.462043682258155 81.4564745608674 H 0.0 **** 0.06
23219 H 64.6359345960987 34.87798607357959 80.74773108664331 H 0.0 **** 0.06
23220 H 63.23836139315097 35.95379115524864 80.50249738836484 H 0.0 **** 0.06
23221 C 3.7063263593928184 67.37719257168607 9.676086734729239 C 0.0 **** -0.24
23222 H 4.786966602028173 67.49376351469726 9.76499479162959 H 0.0 **** 0.06
23223 H 3.2107222596201836 68.23970405875065 10.121510366001502 H 0.0 **** 0.06
23224 H 3.3960505821641505 66.4710105364619 10.195891262205066 H 0.0 **** 0.06
23225 H 3.4341860028528686 67.3044063396124 8.623407548126693 H 0.0 **** 0.06
23226 C 87.56793618145588 1.875228154897286 80.73889251223534 C 0.0 **** -0.24
23227 H 88.35821541560158 1.910589453693305 79.98931930224438 H 0.0 **** 0.06
23228 H 86.83712665585807 1.1155518974751004 80.4596288768824 H 0.0 **** 0.06
23229 H 87.07824596698234 2.846837471629641 80.79575628372187 H 0.0 **** 0.06
23230 H 87.99801323406898 1.6271636204803173 81.70854469706374 H 0.0 **** 0.06
23231 C 15.358300418982367 87.83074249185277 32.834634128595866 C 0.0 **** -0.24
23232 H 15.4840563477984 88.02270060476913 33.89980932440031 H 0.0 **** 0.06
23233 H 16.22106777423909 88.2179717424973 32.291645405247834 H 0.0 **** 0.06
23234 H 14.453423460629153 88.3254465950283 32.48019189539545 H 0.0 **** 0.06
23235 H 15.274654093262427 86.7568510251162 32.66688988933973 H 0.0 **** 0.06
23236 C 62.505718206469254 22.85162968947762 43.90616135687635 C 0.0 **** -0.24
23237 H 62.78632459269721 21.83993150348587 44.20071625279518 H 0.0 **** 0.06
23238 H 63.04248298665803 23.57140170212466 44.52442711154918 H 0.0 **** 0.06
23239 H 61.43222051191472 22.98368765986345 44.04115801456592 H 0.0 **** 0.06
23240 H 62.762648800728726 23.008875799971975 42.85903576903275 H 0.0 **** 0.06
23241 C 94.71887587998727 85.42980525758122 43.50017072214388 C 0.0 **** -0.24
23242 H 94.80423768444416 84.40970216880775 43.12665937574391 H 0.0 **** 0.06
23243 H 94.25740945734698 86.05847334447847 42.73707571204284 H 0.0 **** 0.06
23244 H 95.71060747809938 85.81425824882508 43.73751440138801 H 0.0 **** 0.06
23245 H 94.10092209976592 85.43699832523373 44.39869737520317 H 0.0 **** 0.06
23246 C 16.945676202220668 91.46605720460428 83.88253244364944 C 0.0 **** -0.24
23247 H 17.473156044127023 92.35066961639603 83.52383665890694 H 0.0 **** 0.06
23248 H 17.66707704655009 90.68182409051457 84.11161309182961 H 0.0 **** 0.06
23249 H 16.259688356706093 91.11582814464947 83.11147085493602 H 0.0 **** 0.06
23250 H 16.383587256956986 91.71794139764796 84.78210684422764 H 0.0 **** 0.06
23251 C 20.877198320706583 61.48308023616937 16.323397530469776 C 0.0 **** -0.24
23252 H 21.46498263682534 61.67950467969462 17.22044366834291 H 0.0 **** 0.06
23253 H 20.487070498253004 62.42232151993133 15.9316772383915 H 0.0 **** 0.06
23254 H 20.049262644190975 60.81891833903725 16.570361441084287 H 0.0 **** 0.06
23255 H 21.510375698566918 61.010802375397816 15.57114968732435 H 0.0 **** 0.06
23256 C 19.248298845117134 7.31312625102214 74.81628053337994 C 0.0 **** -0.24
23257 H 19.746223552129678 8.282877058497377 74.79280498465045 H 0.0 **** 0.06
23258 H 19.119284863713133 6.9966060915816115 75.85196588698906 H 0.0 **** 0.06
23259 H 19.855725566530396 6.580477189781618 74.28517336407668 H 0.0 **** 0.06
23260 H 18.27319491863726 7.393847288571578 74.3365127487807 H 0.0 **** 0.06
23261 C 44.62697161449728 57.64191220038646 68.05458616524001 C 0.0 **** -0.24
23262 H 43.72883904612104 58.24575632556457 68.18956369377648 H 0.0 **** 0.06
23263 H 44.60234025121099 56.79555087964587 68.74076580860063 H 0.0 **** 0.06
23264 H 45.507064292702495 58.25062956668941 68.25915571299512 H 0.0 **** 0.06
23265 H 44.66794971277275 57.27704954478958 67.02827249668795 H 0.0 **** 0.06
23266 C 47.35563794988394 56.25774894518955 99.87322238567074 C 0.0 **** -0.24
23267 H 46.53328974163185 56.32142738577788 100.58644270853293 H 0.0 **** 0.06
23268 H 47.158239347323104 55.45519218642622 99.16151653605445 H 0.0 **** 0.06
23269 H 48.28387410803748 56.052036124212755 100.40711714855053 H 0.0 **** 0.06
23270 H 47.44556243850974 57.203606700157636 99.33875123177566 H 0.0 **** 0.06
23271 C 63.20720062843293 58.80293644760462 62.03856778996031 C 0.0 **** -0.24
23272 H 62.50740193829347 58.90403129339654 61.20918167982822 H 0.0 **** 0.06
23273 H 64.20123274849624 58.57836327323088 61.650005303497636 H 0.0 **** 0.06
23274 H 62.881332292310276 57.99305759827604 62.6920835385514 H 0.0 **** 0.06
23275 H 63.238638303253765 59.73433515985636 62.60335517461891 H 0.0 **** 0.06
23276 C 82.38786549082556 96.76814052888693 37.12517388760557 C 0.0 **** -0.24
23277 H 82.64555754857224 95.77379845867624 37.49056871865665 H 0.0 **** 0.06
23278 H 81.52832936263991 96.69845594073215 36.45829277154027 H 0.0 **** 0.06
23279 H 83.23671991357435 97.18635177074388 36.583622170359405 H 0.0 **** 0.06
23280 H 82.14235250377413 97.41227513500891 37.96917783500811 H 0.0 **** 0.06
23281 C 6.018094256620802 71.41644265234763 47.56239052471199 C 0.0 **** -0.24
23282 H 5.249418705291394 71.12702526833388 46.84612509797156 H 0.0 **** 0.06
23283 H 6.898390187430936 70.78811332632682 47.422601065821716 H 0.0 **** 0.06
23284 H 5.63712787896128 71.28890106657158 48.575451456483094 H 0.0 **** 0.06
23285 H 6.288108127553441 72.46087374495943 47.40447935937692 H 0.0 **** 0.06
23286 C 8.77268927633196 80.18486642216445 31.42413944972364 C 0.0 **** -0.24
23287 H 9.475790394012336 80.08009467898145 30.59786866779035 H 0.0 **** 0.06
23288 H 7.96083287187713 80.84939753256035 31.1282352474517 H 0.0 **** 0.06
23289 H 9.288098396476585 80.60220248810461 32.288871622156506 H 0.0 **** 0.06
23290 H 8.365574564016526 79.20611593132841 31.679836222850525 H 0.0 **** 0.06
23291 C 53.22145914514192 39.64214309765609 77.52388360053368 C 0.0 **** -0.24
23292 H 54.21005033157962 39.94149420456733 77.87112279813755 H 0.0 **** 0.06
23293 H 52.88739328705623 40.329467327204085 76.74582950719798 H 0.0 **** 0.06
23294 H 52.520504020430906 39.667650709743825 78.35727481101664 H 0.0 **** 0.06
23295 H 53.269516430973624 38.63099550546186 77.12017611582162 H 0.0 **** 0.06
23296 C 42.70535834316958 7.561054503759209 62.18897566796784 C 0.0 **** -0.24
23297 H 41.63735258569506 7.779286766434183 62.196193598631226 H 0.0 **** 0.06
23298 H 42.99517982653802 7.2023630426045315 61.20155649151374 H 0.0 **** 0.06
23299 H 42.92442468831593 6.7951062138398015 62.9328902192629 H 0.0 **** 0.06
23300 H 43.262039127494134 8.467242195819267 62.42515149369265 H 0.0 **** 0.06
23301 C 18.889852546449816 74.62325428577076 11.813688723554463 C 0.0 **** -0.24
23302 H 19.928828512474126 74.91009007638465 11.97780424718033 H 0.0 **** 0.06
23303 H 18.234008444775313 75.33222723443997 12.319120801836931 H 0.0 **** 0.06
23304 H 18.722219972581797 73.62310236572485 12.212787890476164 H 0.0 **** 0.06
23305 H 18.677588404148125 74.62832766499837 10.745008294908274 H 0.0 **** 0.06
23306 C 94.23481861713056 41.23059056416045 80.0634365906521 C 0.0 **** -0.24
23307 H 94.86814204145585 40.44682424498782 80.47967634046152 H 0.0 **** 0.06
23308 H 93.43233842546147 41.45927447543957 80.76524137128573 H 0.0 **** 0.06
23309 H 93.80839486265047 40.88988328648804 79.12027594116982 H 0.0 **** 0.06
23310 H 94.83234214844012 42.12574416016702 79.8894584328564 H 0.0 **** 0.06
23311 C 48.62170424021938 58.01842021904963 78.09783658353479 C 0.0 **** -0.24
23312 H 49.656488021198044 57.717319333434176 78.25776294324132 H 0.0 **** 0.06
23313 H 48.01631509029287 57.702768294594534 78.94796279844441 H 0.0 **** 0.06
23314 H 48.24389690279905 57.55125087036211 77.1889531617155 H 0.0 **** 0.06
23315 H 48.56997664388767 59.103167340276514 77.99721496897877 H 0.0 **** 0.06
23316 C 1.1029796995899233 71.8127717845943 44.168202905605355 C 0.0 **** -0.24
23317 H 0.9878326617235302 70.93306564000665 44.801697958837615 H 0.0 **** 0.06
23318 H 1.1144508508803597 71.50748040522835 43.120887580406105 H 0.0 **** 0.06
23319 H 2.040209466127891 72.31484840069011 44.41032929769951 H 0.0 **** 0.06
23320 H 0.2711419291599668 72.49519999138846 44.33855051508321 H 0.0 **** 0.06
23321 C 43.31415776272928 98.10402446035849 10.003488211832632 C 0.0 **** -0.24
23322 H 43.840568850952096 98.75595630522031 9.30608663376725 H 0.0 **** 0.06
23323 H 42.75537705270979 98.71075444812224 10.716009470897376 H 0.0 **** 0.06
23324 H 44.03651997138994 97.48666940313302 10.538179069736373 H 0.0 **** 0.06
23325 H 42.626668666517276 97.4639386195598 9.45218023720912 H 0.0 **** 0.06
23326 C 46.116355808194044 9.348408295916329 38.3130448257902 C 0.0 **** -0.24
23327 H 45.79277662003432 9.952387251171402 39.160332619335634 H 0.0 **** 0.06
23328 H 47.14656472298714 9.029316178518116 38.46776545492895 H 0.0 **** 0.06
23329 H 46.05168860043517 9.939956647834293 37.400502580777015 H 0.0 **** 0.06
23330 H 45.472898632626254 8.472921585648209 38.22494489049669 H 0.0 **** 0.06
23331 C 12.481674538258204 61.67218812241721 33.48670125683734 C 0.0 **** -0.24
23332 H 11.679284467847523 61.09646512908472 33.02483554005278 H 0.0 **** 0.06
23333 H 12.228672952421135 61.87950699918194 34.52619813633459 H 0.0 **** 0.06
23334 H 12.610268369174733 62.61079034937222 32.948875883725044 H 0.0 **** 0.06
23335 H 13.408329815342412 61.09843494407558 33.44573709920109 H 0.0 **** 0.06
23336 C 77.89995421282651 105.53038679358421 51.440545637321264 C 0.0 **** -0.24
23337 H 77.8112585480149 105.39289990851681 50.36356881500725 H 0.0 **** 0.06
23338 H 78.76030387256839 106.16299185143066 51.657084255468654 H 0.0 **** 0.06
23339 H 78.03153182044599 104.5595801989731 51.91981869077254 H 0.0 **** 0.06
23340 H 76.9943665667738 106.00336315085713 51.822017974401554 H 0.0 **** 0.06
23341 C 84.0814557937214 37.31251364546756 4.500431652095131 C 0.0 **** -0.24
23342 H 84.08835214574306 36.88554427363772 3.4977860106939715 H 0.0 **** 0.06
23343 H 83.58335904242153 36.62396557641557 5.1838765622107985 H 0.0 **** 0.06
23344 H 83.54607513960872 38.261861836040254 4.486820095326664 H 0.0 **** 0.06
23345 H 85.10599975248886 37.47763900859712 4.831304620813967 H 0.0 **** 0.06
23346 C 30.465145062359113 73.82548582077857 9.944891900638396 C 0.0 **** -0.24
23347 H 29.490733058577803 73.55017165552522 10.348905617038952 H 0.0 **** 0.06
23348 H 31.223312341545977 73.14215748431673 10.327636561421798 H 0.0 **** 0.06
23349 H 30.70767457291373 74.844166000023 10.245128091505649 H 0.0 **** 0.06
23350 H 30.436754168841162 73.76430995555796 8.856089224690464 H 0.0 **** 0.06
23351 C 56.353419844699594 22.35138421392142 0.5434322800045752 C 0.0 **** -0.24
23352 H 55.97569367306878 21.41569629261093 0.9569728598780793 H 0.0 **** 0.06
23353 H 57.119207884062874 22.75701471657183 1.2031922333855096 H 0.0 **** 0.06
23354 H 55.533785349429955 23.065574778353295 0.45505857525970494 H 0.0 **** 0.06
23355 H 56.78141964671672 22.16630709898186 -0.4420814766811185 H 0.0 **** 0.06
23356 C 53.07265656013277 40.44457919603923 4.537755738843941 C 0.0 **** -0.24
23357 H 52.37752715104426 41.04881571046144 3.955950800123148 H 0.0 **** 0.06
23358 H 52.9481900108575 39.39342404172311 4.275701026073608 H 0.0 **** 0.06
23359 H 52.87030347585173 40.58100545438967 5.600748625706082 H 0.0 **** 0.06
23360 H 54.09447089680285 40.7552438328259 4.31959832542364 H 0.0 **** 0.06
23361 C 50.22022412784759 75.41842718238809 74.68485733317453 C 0.0 **** -0.24
23362 H 51.266989061646996 75.25050481103867 74.94035490279931 H 0.0 **** 0.06
23363 H 49.959136134903304 74.81856644704706 73.81246355168105 H 0.0 **** 0.06
23364 H 50.065774007742505 76.47384440406245 74.46049076753228 H 0.0 **** 0.06
23365 H 49.59107748812261 75.12949975218098 75.52614153321049 H 0.0 **** 0.06
23366 C 14.428029304248184 102.44178930633973 11.024457357016956 C 0.0 **** -0.24
23367 H 15.036145900120204 101.81718707653987 10.368936923731724 H 0.0 **** 0.06
23368 H 14.983850986340173 103.34252532575567 11.28524385235292 H 0.0 **** 0.06
23369 H 14.185131936592342 101.88823536575079 11.931296149723408 H 0.0 **** 0.06
23370 H 13.507299942638383 102.71791355305096 10.510297302551322 H 0.0 **** 0.06
23371 C 40.09024728761864 80.24244810668387 103.12346752330531 C 0.0 **** -0.24
23372 H 40.61332360501433 81.16210052131959 102.86119988889249 H 0.0 **** 0.06
23373 H 40.69526360536378 79.38455583840806 102.82952053219262 H 0.0 **** 0.06
23374 H 39.13324931681268 80.20814279691797 102.60318709991806 H 0.0 **** 0.06
23375 H 39.920122224625004 80.21586408641781 104.19941335071647 H 0.0 **** 0.06
23376 C 74.75058068801513 21.174654435382166 33.48185278428335 C 0.0 **** -0.24
23377 H 74.56145699900975 21.435323581260462 34.523312118813635 H 0.0 **** 0.06
23378 H 74.66114625418868 20.096169339989572 33.355002290866906 H 0.0 **** 0.06
23379 H 75.75682328603057 21.49072140953794 33.20646539106926 H 0.0 **** 0.06
23380 H 74.02478276121218 21.67864815886493 32.84326573018802 H 0.0 **** 0.06
23381 C 72.7221424807093 12.610630182591677 79.49117274134002 C 0.0 **** -0.24
23382 H 71.96074314381549 13.389819151335871 79.51205984529716 H 0.0 **** 0.06
23383 H 73.09709053249797 12.496959442303847 78.47307956443542 H 0.0 **** 0.06
23384 H 72.28619725207926 11.668837914131458 79.82465856414632 H 0.0 **** 0.06
23385 H 73.54280753626671 12.886444739763718 80.15248647064458 H 0.0 **** 0.06
23386 C 67.96911776210493 20.042919044682023 8.750638446876103 C 0.0 **** -0.24
23387 H 69.04939078157082 20.09817985520509 8.614799676231073 H 0.0 **** 0.06
23388 H 67.48522482726452 20.783428591188226 8.114059363251654 H 0.0 **** 0.06
23389 H 67.72308946952035 20.242040630437288 9.793508220472267 H 0.0 **** 0.06
23390 H 67.62036635889103 19.045895090161338 8.478213259171923 H 0.0 **** 0.06
23391 C 42.60847172034431 104.07197401074095 30.585893989561093 C 0.0 **** -0.24
23392 H 41.80996270744774 103.45418658980752 30.177755945975875 H 0.0 **** 0.06
23393 H 43.43516812724425 104.11285706699535 29.876199432521204 H 0.0 **** 0.06
23394 H 42.95720478710902 103.64196613423209 31.525088966583212 H 0.0 **** 0.06
23395 H 42.23263244314913 105.08005058001147 30.765221192993735 H 0.0 **** 0.06
23396 C 87.68097811295252 79.61928527928677 33.035431897177716 C 0.0 **** -0.24
23397 H 88.50830495509118 79.10995342063453 33.52892660854013 H 0.0 **** 0.06
23398 H 86.87142511280213 78.91029585264283 32.86057863368117 H 0.0 **** 0.06
23399 H 88.02030809986096 80.0258750047501 32.08354136188788 H 0.0 **** 0.06
23400 H 87.32330340788079 80.42971175928403 33.67040467171233 H 0.0 **** 0.06
23401 C 67.4221648336158 100.10585376070257 65.35757487670844 C 0.0 **** -0.24
23402 H 67.99844461486869 99.19866162632829 65.17271599534922 H 0.0 **** 0.06
23403 H 66.43077677239356 99.83690635671593 65.72398554085134 H 0.0 **** 0.06
23404 H 67.3270259934868 100.67118040960467 64.43084511056702 H 0.0 **** 0.06
23405 H 67.93394645514935 100.7140865380173 66.10374723783644 H 0.0 **** 0.06
23406 C 0.7321562373421244 24.38330896349012 76.23744550298211 C 0.0 **** -0.24
23407 H 0.37937752808262815 25.28913231126543 75.74425187257222 H 0.0 **** 0.06
23408 H 1.318019223748081 24.65280300209824 77.11614751500207 H 0.0 **** 0.06
23409 H 1.352072322249029 23.812501166918967 75.54653220481012 H 0.0 **** 0.06
23410 H -0.12293634920727925 23.77910908515563 76.54161472065502 H 0.0 **** 0.06
23411 C 93.97831214424073 39.06609081493045 72.01711981933619 C 0.0 **** -0.24
23412 H 94.26965521200846 40.0356289820574 71.61375442300482 H 0.0 **** 0.06
23413 H 92.90556532921251 39.06138496231756 72.21047140898679 H 0.0 **** 0.06
23414 H 94.51620544423015 38.88194598469303 72.94690536981886 H 0.0 **** 0.06
23415 H 94.2216596244879 38.28542042489903 71.29636156877609 H 0.0 **** 0.06
23416 C 16.261376637089256 98.2874215611482 75.98400202961585 C 0.0 **** -0.24
23417 H 15.44535190306938 98.5458685590422 75.3095611759349 H 0.0 **** 0.06
23418 H 17.2026388262168 98.65351304640541 75.5743031018464 H 0.0 **** 0.06
23419 H 16.310406018358194 97.2043929889349 76.09620689379318 H 0.0 **** 0.06
23420 H 16.086674830193317 98.74536406953786 76.95806090223073 H 0.0 **** 0.06
23421 C 6.726669599832974 23.202252799865562 91.22354624468579 C 0.0 **** -0.24
23422 H 6.006789765922065 22.722598685924197 90.56001878917735 H 0.0 **** 0.06
23423 H 7.1687075611110345 24.061827765898812 90.71948172786537 H 0.0 **** 0.06
23424 H 7.5104204680035025 22.489504944094534 91.48322075600404 H 0.0 **** 0.06
23425 H 6.220508865092569 23.532261117331075 92.130467688711 H 0.0 **** 0.06
23426 C 71.14102029274498 62.84653847779998 68.07059426133202 C 0.0 **** -0.24
23427 H 70.55374760787966 63.593322063960784 67.53451137423258 H 0.0 **** 0.06
23428 H 72.20149751985713 63.01846238344925 67.88500883044071 H 0.0 **** 0.06
23429 H 70.86753569941894 61.850616086853336 67.7221197642686 H 0.0 **** 0.06
23430 H 70.94047375352532 62.92662567357621 69.13848600882505 H 0.0 **** 0.06
23431 C 82.1030583432453 31.102673527716703 1.4794527624496254 C 0.0 **** -0.24
23432 H 82.53199242527282 31.991718666149225 1.017197421022388 H 0.0 **** 0.06
23433 H 82.56424292370838 30.211869488670523 1.0508541883638713 H 0.0 **** 0.06
23434 H 81.02920156557872 31.080248042169913 1.2961432216153526 H 0.0 **** 0.06
23435 H 82.28809950644074 31.1268323723871 2.553067123553376 H 0.0 **** 0.06
23436 C 55.57054063172944 23.869533080592817 7.70267302506808 C 0.0 **** -0.24
23437 H 55.76411519543743 24.867522833562987 8.094112653880558 H 0.0 **** 0.06
23438 H 55.19290652456871 23.232888085388197 8.50366079218712 H 0.0 **** 0.06
23439 H 56.49647529946523 23.44771303395089 7.309637882744866 H 0.0 **** 0.06
23440 H 54.83087227988278 23.928620637679614 6.905070971553258 H 0.0 **** 0.06
23441 C 17.425879311039267 59.41111462453023 49.15269056476433 C 0.0 **** -0.24
23442 H 16.96740562130384 59.12972343591997 50.10088073438911 H 0.0 **** 0.06
23443 H 17.554386200522288 60.49317938377487 49.119081606379694 H 0.0 **** 0.06
23444 H 16.78346684347335 59.09533023120605 48.331858025706566 H 0.0 **** 0.06
23445 H 18.398120903516173 58.92637142761686 49.06225251816528 H 0.0 **** 0.06
23446 C 40.537994684154 15.745797162940903 80.60135311117045 C 0.0 **** -0.24
23447 H 41.54510387757375 15.53363027701451 80.96149201894394 H 0.0 **** 0.06
23448 H 40.01791915713699 16.37431905693677 81.32388571098369 H 0.0 **** 0.06
23449 H 39.993986858497635 14.810239763489903 80.47420157974824 H 0.0 **** 0.06
23450 H 40.59788292928684 16.26482417481037 79.64425901555694 H 0.0 **** 0.06
23451 C 36.02995292615486 44.42205846374973 62.871441970749345 C 0.0 **** -0.24
23452 H 36.962655872820676 44.98620242869202 62.86804902588614 H 0.0 **** 0.06
23453 H 35.30470987502983 44.914505535124796 62.22391197842853 H 0.0 **** 0.06
23454 H 35.63767384917114 44.375419609378916 63.88747330046567 H 0.0 **** 0.06
23455 H 36.21515128291753 43.41135326690084 62.50746904584355 H 0.0 **** 0.06
23456 C 101.99491406619603 30.763185641773795 96.7085554009144 C 0.0 **** -0.24
23457 H 102.75119026591946 30.68438044218869 97.48976713519892 H 0.0 **** 0.06
23458 H 102.36499044463588 31.404520832911913 95.90869206788796 H 0.0 **** 0.06
23459 H 101.08465355028787 31.193537017549396 97.12716289671982 H 0.0 **** 0.06
23460 H 101.77849744917575 29.772540399053725 96.31102744896282 H 0.0 **** 0.06
23461 C 51.93629603698071 17.759582694059077 46.90670607268618 C 0.0 **** -0.24
23462 H 52.01779849280075 17.16896393810788 47.82035953013764 H 0.0 **** 0.06
23463 H 52.080400248280824 17.111193785910956 46.042080987927534 H 0.0 **** 0.06
23464 H 52.699031644405665 18.537564583955117 46.9093949353865 H 0.0 **** 0.06
23465 H 50.94927776107093 18.217555095927125 46.857422913670575 H 0.0 **** 0.06
23466 C 86.90504661745949 43.635896029549656 27.6922076167225 C 0.0 **** -0.24
23467 H 87.79722736133954 43.955429476282774 28.230972514981374 H 0.0 **** 0.06
23468 H 86.07689874403803 43.529570319072576 28.392936275128022 H 0.0 **** 0.06
23469 H 87.09715782134677 42.67830125985461 27.20795637710546 H 0.0 **** 0.06
23470 H 86.65062927060765 44.38040035086354 26.93796771670867 H 0.0 **** 0.06
23471 C 42.58523741870181 5.846486526812738 31.946269892764064 C 0.0 **** -0.24
23472 H 43.1302061324142 5.218976404673365 32.65159241563859 H 0.0 **** 0.06
23473 H 41.52059363062452 5.619178821158808 32.00489190512778 H 0.0 **** 0.06
23474 H 42.94283285382696 5.65184299327551 30.935123459075356 H 0.0 **** 0.06
23475 H 42.74731705794133 6.895947888143249 32.193471791214705 H 0.0 **** 0.06
23476 C 22.54587456386684 87.71532594011308 1.4945143348908232 C 0.0 **** -0.24
23477 H 21.77080814708415 88.48124045450771 1.5185081983375994 H 0.0 **** 0.06
23478 H 23.46875969137656 88.1197883060816 1.9111400412270996 H 0.0 **** 0.06
23479 H 22.716898091033592 87.40404146540828 0.4644038562937567 H 0.0 **** 0.06
23480 H 22.226917047016023 86.8565635821522 2.085375598175631 H 0.0 **** 0.06
23481 C 10.70469360591107 11.523351446860275 15.429758908804075 C 0.0 **** -0.24
23482 H 11.627375730801303 11.991719672409246 15.085602465561863 H 0.0 **** 0.06
23483 H 10.94569195435758 10.659744998838661 16.050892936195226 H 0.0 **** 0.06
23484 H 10.118283412362851 11.200238482698836 14.570191133672978 H 0.0 **** 0.06
23485 H 10.129804703790205 12.241652577604938 16.01417309245187 H 0.0 **** 0.06
23486 C 91.97728555186478 70.47571273673334 40.98775010726891 C 0.0 **** -0.24
23487 H 92.79583092095845 71.00769713094063 41.47200702658055 H 0.0 **** 0.06
23488 H 91.06425292458658 71.06754520529283 41.06377332939755 H 0.0 **** 0.06
23489 H 91.82819917673385 69.51350764070213 41.47788001040525 H 0.0 **** 0.06
23490 H 92.21957392583602 70.31450263709448 39.93777234044614 H 0.0 **** 0.06
23491 C 85.39011113571695 10.271777878386445 39.46037362941313 C 0.0 **** -0.24
23492 H 85.9771083856811 10.368995547777075 38.547048022543926 H 0.0 **** 0.06
23493 H 85.4849198437455 11.182697041857352 40.05146524332588 H 0.0 **** 0.06
23494 H 85.75613380319282 9.422837838767123 40.03825246353474 H 0.0 **** 0.06
23495 H 84.34279419068372 10.111515626286518 39.20395221072403 H 0.0 **** 0.06
23496 C 27.972170439711377 87.79554762133517 37.76888727334789 C 0.0 **** -0.24
23497 H 28.41746607488066 86.82680975067586 37.543058962872145 H 0.0 **** 0.06
23498 H 26.90094999337288 87.67358812939725 37.9313168756709 H 0.0 **** 0.06
23499 H 28.137642156355103 88.47459535083578 36.93252969807804 H 0.0 **** 0.06
23500 H 28.43208472843665 88.20592701311764 38.66759650688724 H 0.0 **** 0.06
23501 C 66.18982118275156 70.46005543595828 96.39495941089089 C 0.0 **** -0.24
23502 H 67.08510974302592 71.05639838149558 96.57019405895826 H 0.0 **** 0.06
23503 H 65.30829997169522 71.09734063475656 96.4690719256898 H 0.0 **** 0.06
23504 H 66.12964248265195 69.66719206730401 97.14023177099233 H 0.0 **** 0.06
23505 H 66.23619232478893 70.0189438680782 95.39940278362369 H 0.0 **** 0.06
23506 C 106.16856298732637 66.23642982558488 57.49948899927913 C 0.0 **** -0.24
23507 H 106.08670754461502 67.32290240241417 57.52188791809181 H 0.0 **** 0.06
23508 H 107.21643404237858 65.94902469347215 57.59201629078712 H 0.0 **** 0.06
23509 H 105.77024793218874 65.86129844412648 56.55598206291282 H 0.0 **** 0.06
23510 H 105.6005563463388 65.81187817548346 58.327343494229844 H 0.0 **** 0.06
23511 C 63.39627145523208 47.46372292495329 83.9016935254491 C 0.0 **** -0.24
23512 H 63.901963725209214 46.50685961945135 83.77137215791996 H 0.0 **** 0.06
23513 H 63.537151842882096 47.81344198525841 84.92471113563019 H 0.0 **** 0.06
23514 H 62.33163080165626 47.34231551254709 83.70268545406438 H 0.0 **** 0.06
23515 H 63.81527988933634 48.19257901696136 83.20785388861955 H 0.0 **** 0.06
23516 C 85.69221460496536 96.1583750860467 89.98096878828554 C 0.0 **** -0.24
23517 H 84.62080060152273 96.06181024333443 90.15978160498442 H 0.0 **** 0.06
23518 H 86.18963377894694 95.22420276053212 90.24224441119256 H 0.0 **** 0.06
23519 H 86.09121580852809 96.96725877715588 90.59373788143704 H 0.0 **** 0.06
23520 H 85.86571262123344 96.38110222784182 88.92811135670566 H 0.0 **** 0.06
23521 C 5.8992826116432155 69.36003680413486 69.40056128287446 C 0.0 **** -0.24
23522 H 5.827187249605274 68.53254742725767 68.6954029638176 H 0.0 **** 0.06
23523 H 5.7071859599217305 68.99522116940915 70.40974964609177 H 0.0 **** 0.06
23524 H 5.163746202438048 70.12139010781021 69.14252445218389 H 0.0 **** 0.06
23525 H 6.899974363370603 69.7905098981139 69.3536499090271 H 0.0 **** 0.06
23526 C 18.99591610492618 74.33479461407627 76.27825803386303 C 0.0 **** -0.24
23527 H 18.583062413190078 73.50851499408134 75.69872065828878 H 0.0 **** 0.06
23528 H 18.410669884287927 75.23578712923025 76.09275578539223 H 0.0 **** 0.06
23529 H 20.030784549959975 74.50554519593777 75.98104554548352 H 0.0 **** 0.06
23530 H 18.958319857319424 74.0885640241074 77.33919615852724 H 0.0 **** 0.06
23531 C 30.464107919275136 45.60027913375228 38.352498958012205 C 0.0 **** -0.24
23532 H 31.33814959236645 44.97628517190503 38.166256127281855 H 0.0 **** 0.06
23533 H 30.016695398229785 45.890395346139144 37.40221937116925 H 0.0 **** 0.06
23534 H 30.765725259671996 46.49238248920989 38.90100444654789 H 0.0 **** 0.06
23535 H 29.738286528633438 45.04005659441469 38.94087865277427 H 0.0 **** 0.06
23536 C 67.25615393965023 83.38158804381982 9.081416275086184 C 0.0 **** -0.24
23537 H 67.15938615126686 83.31199112380176 10.165750659850005 H 0.0 **** 0.06
23538 H 68.17607882894436 83.91076469805263 8.833565601665299 H 0.0 **** 0.06
23539 H 66.40266456860235 83.92396644380325 8.676201254575801 H 0.0 **** 0.06
23540 H 67.28617862280817 82.3790677932771 8.654685246919826 H 0.0 **** 0.06
23541 C 21.251805943655256 53.082492219507266 51.47753523007069 C 0.0 **** -0.24
23542 H 20.773953240000935 52.2766442042712 50.92035529418153 H 0.0 **** 0.06
23543 H 20.548660510098443 53.90802716247564 51.59738248686157 H 0.0 **** 0.06
23544 H 22.13011540155304 53.42983280762134 50.933010904390024 H 0.0 **** 0.06
23545 H 21.55391115932514 52.7167086802335 52.45905729521414 H 0.0 **** 0.06
23546 C 90.11870323225897 52.71458416775425 98.78354079934303 C 0.0 **** -0.24
23547 H 90.06955159733133 52.12581772044183 99.69888709455165 H 0.0 **** 0.06
23548 H 89.57740369051105 52.198171346121114 97.98985044319551 H 0.0 **** 0.06
23549 H 91.16117423554458 52.841325435318765 98.48948702918682 H 0.0 **** 0.06
23550 H 89.66744312375384 53.691920702490336 98.95548070934592 H 0.0 **** 0.06
23551 C 1.969946284462651 63.83466929325654 11.1509634205961 C 0.0 **** -0.24
23552 H 2.620554761771018 63.627540387982435 12.00061684007062 H 0.0 **** 0.06
23553 H 1.4771217511921577 62.91450020272005 10.838213521900059 H 0.0 **** 0.06
23554 H 2.564536449611694 64.22877752284889 10.32649148678729 H 0.0 **** 0.06
23555 H 1.2186387085063188 64.57027172299328 11.440275972983272 H 0.0 **** 0.06
23556 C 45.0616726204031 106.66925697132811 28.71055459555822 C 0.0 **** -0.24
23557 H 44.60248143339757 107.38203766280049 29.396171753662685 H 0.0 **** 0.06
23558 H 45.88906403354025 107.15074123933303 28.187627127187 H 0.0 **** 0.06
23559 H 44.31968656120145 106.33197267557631 27.98737850252226 H 0.0 **** 0.06
23560 H 45.43621828953414 105.81380231073692 29.274218192940623 H 0.0 **** 0.06
23561 C 23.477246375769397 27.31960772833105 58.63012834454113 C 0.0 **** -0.24
23562 H 24.37195094194567 27.516639748111317 59.22091328076263 H 0.0 **** 0.06
23563 H 22.67275714195395 26.990605243843078 59.28890615719422 H 0.0 **** 0.06
23564 H 23.690159435755533 26.539410337870493 57.89897460409597 H 0.0 **** 0.06
23565 H 23.17448065163896 28.229578613357518 58.113463515673615 H 0.0 **** 0.06
23566 C 63.08410440238282 20.053443368270763 22.684881020029366 C 0.0 **** -0.24
23567 H 63.987200028635755 19.49852875272225 22.431577354712033 H 0.0 **** 0.06
23568 H 63.24807969644888 20.611726690002882 23.607544352200478 H 0.0 **** 0.06
23569 H 62.256512684906966 19.358273835342317 22.82298220481141 H 0.0 **** 0.06
23570 H 62.845395862680334 20.74683674870215 21.87835292520606 H 0.0 **** 0.06
23571 C 66.46130989691295 70.95894515056985 69.54840999296071 C 0.0 **** -0.24
23572 H 65.48909074592063 71.43551704275976 69.6771768308844 H 0.0 **** 0.06
23573 H 67.22591391035957 71.5569006977517 70.04571737992744 H 0.0 **** 0.06
23574 H 66.69192169418926 70.88554903312566 68.48620716006853 H 0.0 **** 0.06
23575 H 66.43769957350543 69.96147442294938 69.98501200447184 H 0.0 **** 0.06
23576 C 8.872793350697918 0.7218809230728871 64.8477228257347 C 0.0 **** -0.24
23577 H 9.95313207902582 0.7459240681542418 64.9929085623497 H 0.0 **** 0.06
23578 H 8.634420263978399 0.07925783093148775 63.99906587040127 H 0.0 **** 0.06
23579 H 8.51005625666005 1.7308832413713695 64.6533036906564 H 0.0 **** 0.06
23580 H 8.394318494624684 0.3299033432838243 65.74549736228371 H 0.0 **** 0.06
23581 C 48.22667695482336 93.24323518690818 36.50534631025738 C 0.0 **** -0.24
23582 H 47.33995408873511 92.81989514881292 36.97761582862728 H 0.0 **** 0.06
23583 H 48.106562789149436 94.32254039662001 36.40768570478616 H 0.0 **** 0.06
23584 H 48.35893072754475 92.80015379371804 35.51825131537191 H 0.0 **** 0.06
23585 H 49.1012248919725 93.02948703905236 37.11989439323668 H 0.0 **** 0.06
23586 C 40.40426973905504 84.21360185216133 89.45770909914866 C 0.0 **** -0.24
23587 H 41.22670902680283 84.30486300299708 90.16758567521238 H 0.0 **** 0.06
23588 H 40.273354420001425 83.16565396764315 89.18681217001405 H 0.0 **** 0.06
23589 H 40.62979685470504 84.79471715805732 88.56411736866212 H 0.0 **** 0.06
23590 H 39.48813368736328 84.58899923773856 89.91268514781785 H 0.0 **** 0.06
23591 C 72.2451215794388 31.209969750383067 24.61435110023703 C 0.0 **** -0.24
23592 H 72.70731478900578 31.13652692311163 25.598798812296764 H 0.0 **** 0.06
23593 H 71.80501014124283 30.248452973173556 24.347778089010205 H 0.0 **** 0.06
23594 H 73.000936561837 31.480876045419052 23.877399146249616 H 0.0 **** 0.06
23595 H 71.46664782212414 31.9729399862953 24.635297644399174 H 0.0 **** 0.06
23596 C 39.099310423216274 32.49155733446915 47.01383808929489 C 0.0 **** -0.24
23597 H 39.054003159410115 33.12573785269774 46.12749554295331 H 0.0 **** 0.06
23598 H 40.11597761029872 32.490276840790756 47.40709996892241 H 0.0 **** 0.06
23599 H 38.81135412986274 31.474435758455797 46.74688377032564 H 0.0 **** 0.06
23600 H 38.41556275280877 32.87551756019016 47.77015635738431 H 0.0 **** 0.06
23601 C 89.9488681690834 70.22505561474375 33.604133993952644 C 0.0 **** -0.24
23602 H 88.90096963676402 70.24584472682474 33.903125929683696 H 0.0 **** 0.06
23603 H 90.28468742143392 71.23900242811223 33.38485783140837 H 0.0 **** 0.06
23604 H 90.05995524676689 69.60555638552202 32.71351335096634 H 0.0 **** 0.06
23605 H 90.55010972757881 69.80940159452197 34.413098800259235 H 0.0 **** 0.06
23606 C 1.1601419843106555 8.767992895993004 85.02197276222212 C 0.0 **** -0.24
23607 H 1.8743431282736083 7.997132930614768 85.31175432695584 H 0.0 **** 0.06
23608 H 0.948987518854608 8.683445588930965 83.95522943587882 H 0.0 **** 0.06
23609 H 1.5821320702065123 9.75129716678164 85.23195807042754 H 0.0 **** 0.06
23610 H 0.23780969385950357 8.639689885583138 85.58771576952532 H 0.0 **** 0.06
23611 C 3.183765162960327 75.45871661143417 28.868396201365613 C 0.0 **** -0.24
23612 H 2.812338970491723 74.70265808572532 28.177418092263395 H 0.0 **** 0.06
23613 H 2.626551891145695 75.40160417835284 29.80383421574868 H 0.0 **** 0.06
23614 H 3.0536706666976556 76.44829196453017 28.428719258378237 H 0.0 **** 0.06
23615 H 4.241812712854497 75.28353025886082 29.063826093131468 H 0.0 **** 0.06
23616 C 39.209968388686235 90.48861598323586 61.33785401153861 C 0.0 **** -0.24
23617 H 38.38022990297142 90.03297738931386 60.79869061984016 H 0.0 **** 0.06
23618 H 38.8835130308245 90.76711466980595 62.33950966996828 H 0.0 **** 0.06
23619 H 39.54591081530981 91.3777009967038 60.804458079763904 H 0.0 **** 0.06
23620 H 40.03167761702255 89.77529989235236 61.40775997072507 H 0.0 **** 0.06
23621 C 1.1695272851484333 53.95284901356726 48.956445380979744 C 0.0 **** -0.24
23622 H 0.43462762738785443 53.27079447345542 49.38607764876241 H 0.0 **** 0.06
23623 H 1.0930366967338898 54.92323962593885 49.447342492762516 H 0.0 **** 0.06
23624 H 0.9781137242093081 54.06791130527763 47.89019345779161 H 0.0 **** 0.06
23625 H 2.1702307703405523 53.54747777103421 49.105868925961204 H 0.0 **** 0.06
23626 C 6.528730039999914 65.55228545687896 16.173521577941187 C 0.0 **** -0.24
23627 H 7.018067503798761 64.64210347204556 15.8250013265054 H 0.0 **** 0.06
23628 H 5.453322011818486 65.46845809962201 16.019355377817078 H 0.0 **** 0.06
23629 H 6.910540195938438 66.40668771809334 15.61432795718747 H 0.0 **** 0.06
23630 H 6.735102525233103 65.69160720829245 17.234724930980235 H 0.0 **** 0.06
23631 C 52.47276425413268 90.12966413586759 69.27550764078248 C 0.0 **** -0.24
23632 H 52.03319757334479 90.42812181388683 70.22732057478996 H 0.0 **** 0.06
23633 H 53.55300931907701 90.03009599529946 69.38982988565476 H 0.0 **** 0.06
23634 H 52.25429123216736 90.8849746578598 68.52130593526806 H 0.0 **** 0.06
23635 H 52.05123684535191 89.17345799919083 68.96569936099405 H 0.0 **** 0.06
23636 C 86.46910391557122 39.040361046220625 56.25049166996769 C 0.0 **** -0.24
23637 H 87.25374132472096 39.46048021425702 55.621521311130664 H 0.0 **** 0.06
23638 H 85.80505063370339 38.42790395652321 55.64050293082164 H 0.0 **** 0.06
23639 H 85.89939163446145 39.84944325090822 56.708099179259875 H 0.0 **** 0.06
23640 H 86.91815278226403 38.42522034355531 57.02999325329006 H 0.0 **** 0.06
23641 C 87.22867222248448 31.225097709213856 11.208905840494083 C 0.0 **** -0.24
23642 H 87.62992725563743 30.930759572299763 10.239126913510859 H 0.0 **** 0.06
23643 H 88.04926651960486 31.410743920833596 11.901125560309396 H 0.0 **** 0.06
23644 H 86.5981058932478 30.425931571365425 11.59842386487226 H 0.0 **** 0.06
23645 H 86.63516989281186 32.13225049336114 11.096187129718459 H 0.0 **** 0.06
23646 C 41.845209738636896 70.19201767280487 20.380760532406413 C 0.0 **** -0.24
23647 H 42.09945004051761 69.31769963876292 20.979762653422256 H 0.0 **** 0.06
23648 H 41.010066999139696 70.71854855439102 20.844076407983323 H 0.0 **** 0.06
23649 H 41.56391783013564 69.87560757369857 19.3771504768265 H 0.0 **** 0.06
23650 H 42.7077380870185 70.85679219954352 20.324409596303695 H 0.0 **** 0.06
23651 C 53.13965140352542 105.22696803993372 38.59271614869084 C 0.0 **** -0.24
23652 H 52.98974012497476 104.50445416985617 39.394681860227735 H 0.0 **** 0.06
23653 H 52.246717880066456 105.84531873987886 38.49092748799001 H 0.0 **** 0.06
23654 H 53.324552787004706 104.69896704761572 37.657580806721995 H 0.0 **** 0.06
23655 H 53.99495778053242 105.85890736341291 38.828672351555014 H 0.0 **** 0.06
23656 C 38.699885895268466 80.12743750669003 84.86331986029157 C 0.0 **** -0.24
23657 H 39.00744609423194 81.1320008674187 85.15455156611822 H 0.0 **** 0.06
23658 H 37.62116077575547 80.10968469529399 84.70799870652868 H 0.0 **** 0.06
23659 H 38.96722740062944 79.42349720870573 85.65065792522768 H 0.0 **** 0.06
23660 H 39.20552394946699 79.84804073815573 83.93878953145898 H 0.0 **** 0.06
23661 C 34.8895014746096 87.67753649168412 11.326804355472241 C 0.0 **** -0.24
23662 H 34.72645862261044 88.47322264631543 12.052546183290481 H 0.0 **** 0.06
23663 H 34.12285961641402 87.72921120738835 10.553011914825914 H 0.0 **** 0.06
23664 H 34.835900806534795 86.71146071275189 11.828429964121668 H 0.0 **** 0.06
23665 H 35.87391339411704 87.7964261467946 10.872392424413555 H 0.0 **** 0.06
23666 C 95.1387730739803 91.97126387754354 100.50814956117881 C 0.0 **** -0.24
23667 H 94.63677096028243 91.83560605958887 101.46519055310515 H 0.0 **** 0.06
23668 H 95.60222123441494 91.03224613790167 100.20362821819023 H 0.0 **** 0.06
23669 H 95.90565153829846 92.73970665632378 100.60525682632434 H 0.0 **** 0.06
23670 H 94.41096715743484 92.27785919627907 99.75637791989058 H 0.0 **** 0.06
23671 C 66.38444136064263 34.35514225473681 50.24077183681871 C 0.0 **** -0.24
23672 H 66.07011940333192 33.67193941129948 51.030718896569994 H 0.0 **** 0.06
23673 H 67.05553497291044 33.83525352815104 49.5567383555161 H 0.0 **** 0.06
23674 H 66.90270094043981 35.206444509330524 50.68297905207521 H 0.0 **** 0.06
23675 H 65.50884231862469 34.70620830675799 49.69492145304187 H 0.0 **** 0.06
23676 C 72.00255391012755 68.05153247088509 42.36317484333495 C 0.0 **** -0.24
23677 H 72.88177550569108 67.81863885933922 42.963310351384514 H 0.0 **** 0.06
23678 H 71.13344483959062 67.5422316867058 42.78003796343899 H 0.0 **** 0.06
23679 H 72.16296276506338 67.71691510579723 41.33813731266277 H 0.0 **** 0.06
23680 H 71.83217676524166 69.12849071437103 42.372192410820176 H 0.0 **** 0.06
23681 C 19.973652684757297 43.97857744437704 106.43305215269457 C 0.0 **** -0.24
23682 H 20.46170097128268 44.95266842217222 106.47953220239755 H 0.0 **** 0.06
23683 H 18.98911158686613 44.04412741901149 106.89612745169912 H 0.0 **** 0.06
23684 H 20.57869655532076 43.244408250178935 106.96497433931953 H 0.0 **** 0.06
23685 H 19.866864819996437 43.67569300260709 105.39113032085312 H 0.0 **** 0.06
23686 C 90.88472286181614 69.36880365433159 104.5919598410953 C 0.0 **** -0.24
23687 H 91.19146148651079 69.3938488876202 103.54617024801455 H 0.0 **** 0.06
23688 H 91.11853262558098 68.39193209923333 105.01484002659745 H 0.0 **** 0.06
23689 H 89.81137641967163 69.54752080117893 104.65907409368181 H 0.0 **** 0.06
23690 H 91.41719989868479 70.14239412953977 105.14481123782471 H 0.0 **** 0.06
23691 C 28.974281175188707 49.96876048193252 58.348612254704506 C 0.0 **** -0.24
23692 H 28.817015480132767 49.56328410816002 59.34837029763207 H 0.0 **** 0.06
23693 H 28.05198721180676 49.8868746230836 57.77429508132559 H 0.0 **** 0.06
23694 H 29.76490077198403 49.40776752193523 57.85016640445593 H 0.0 **** 0.06
23695 H 29.264767393421778 51.016618742705816 58.423154339427526 H 0.0 **** 0.06
23696 C 36.83858026024396 3.1242501827359774 7.1430775004975136 C 0.0 **** -0.24
23697 H 36.98571058066179 4.098967628962214 6.67622061815198 H 0.0 **** 0.06
23698 H 36.64232617433973 3.2578639897209882 8.206578962385978 H 0.0 **** 0.06
23699 H 37.73642594035405 2.5204226579303963 7.011429634700207 H 0.0 **** 0.06
23700 H 35.9914232153026 2.621745696930873 6.6761954028701265 H 0.0 **** 0.06
23701 C 28.250637702561505 18.726885204466534 90.1647451569768 C 0.0 **** -0.24
23702 H 27.50566806345185 19.513215605548407 90.28551532794324 H 0.0 **** 0.06
23703 H 28.444953523613066 18.259270190743695 91.13058019526565 H 0.0 **** 0.06
23704 H 29.174164706512073 19.158339776221432 89.7776837042646 H 0.0 **** 0.06
23705 H 27.87820515034676 17.977224003564245 89.4664452248345 H 0.0 **** 0.06
23706 C 50.4901780844109 0.4983705107402008 70.95651792469411 C 0.0 **** -0.24
23707 H 51.47051259073792 0.0336668039653909 71.06578579126361 H 0.0 **** 0.06
23708 H 50.46246256663604 1.4246869851501582 71.53116076156425 H 0.0 **** 0.06
23709 H 49.723227096117164 -0.18165490075442436 71.32488764060756 H 0.0 **** 0.06
23710 H 50.307895138824065 0.7175108070089014 69.90412579401959 H 0.0 **** 0.06
23711 C 41.874615193213856 104.7736502160289 71.55579295334809 C 0.0 **** -0.24
23712 H 41.05967704930089 104.50401575098013 72.22845099356437 H 0.0 **** 0.06
23713 H 42.01145288871993 105.85464645155508 71.56610110724478 H 0.0 **** 0.06
23714 H 41.63112237428726 104.448132214304 70.54363433967222 H 0.0 **** 0.06
23715 H 42.79266631375896 104.28650031173746 71.8828063637333 H 0.0 **** 0.06
23716 C 5.332016334575741 76.68608109471376 7.748030161450814 C 0.0 **** -0.24
23717 H 6.333281206503813 77.03739417978268 7.996816149785559 H 0.0 **** 0.06
23718 H 4.969860569141957 77.21592803238482 6.866619835546956 H 0.0 **** 0.06
23719 H 4.661779782544073 76.87542110510131 8.586905636830565 H 0.0 **** 0.06
23720 H 5.363153470988749 75.61638131844825 7.542378641093094 H 0.0 **** 0.06
23721 C 37.50183485329342 85.59374455531344 39.141410624356034 C 0.0 **** -0.24
23722 H 38.38636189857385 85.63213066698125 38.50569204264413 H 0.0 **** 0.06
23723 H 36.86704992121048 86.45592977625932 38.93213201910012 H 0.0 **** 0.06
23724 H 37.80540971760033 85.61083530890375 40.187704499290284 H 0.0 **** 0.06
23725 H 36.94763636044257 84.67704869601198 38.93804279840435 H 0.0 **** 0.06
23726 C 27.38934800520272 45.77313055477532 40.59583765569971 C 0.0 **** -0.24
23727 H 27.489822413764244 46.61136694742913 39.90642606100835 H 0.0 **** 0.06
23728 H 26.763528886176488 45.00402360116749 40.144283025332925 H 0.0 **** 0.06
23729 H 26.92964523694522 46.11855490015756 41.52160548554673 H 0.0 **** 0.06
23730 H 28.37476046057182 45.36078289846836 40.81103146831623 H 0.0 **** 0.06
23731 C 57.36346301052584 2.927040317003266 61.995696619597595 C 0.0 **** -0.24
23732 H 57.9778017588953 2.187372450016677 61.48197970246106 H 0.0 **** 0.06
23733 H 57.72277476901299 3.05150788549678 63.01774340978926 H 0.0 **** 0.06
23734 H 56.32674739556645 2.5899887593448723 62.01295104147978 H 0.0 **** 0.06
23735 H 57.426878257824995 3.880226164381484 61.470040847536296 H 0.0 **** 0.06
23736 C 0.14278296012730607 30.93322831315217 52.33564342062083 C 0.0 **** -0.24
23737 H 0.9271949136107906 31.523500698219806 51.86148930396956 H 0.0 **** 0.06
23738 H 0.4514789009099047 29.88795983835064 52.377612573956576 H 0.0 **** 0.06
23739 H -0.7758075878784183 31.01788060627956 51.756177252811646 H 0.0 **** 0.06
23740 H -0.028966910098162657 31.303091863703884 53.346240580893976 H 0.0 **** 0.06
23741 C 3.887241487169149 50.531400097825156 68.24650006192408 C 0.0 **** -0.24
23742 H 3.5299926349784982 49.543972320388605 68.53860850585633 H 0.0 **** 0.06
23743 H 4.92020090480537 50.457646875139204 67.90422081938667 H 0.0 **** 0.06
23744 H 3.835533069516771 51.20416667580761 69.10258421749 H 0.0 **** 0.06
23745 H 3.264168989636005 50.91945703253759 67.4406761431043 H 0.0 **** 0.06
23746 C 9.638889514887467 84.94499366203868 30.284284922580632 C 0.0 **** -0.24
23747 H 8.952240089736762 84.86597289885086 29.44160468596347 H 0.0 **** 0.06
23748 H 9.304387624744066 85.74045042178764 30.951692464485376 H 0.0 **** 0.06
23749 H 10.63945283064129 85.17406354172616 29.91839734462537 H 0.0 **** 0.06
23750 H 9.65741159206695 83.9993779980697 30.826756754527622 H 0.0 **** 0.06
23751 C 9.8412079399552 10.828942116477577 106.35027001895769 C 0.0 **** -0.24
23752 H 10.887839059570554 10.631258288554797 106.11688160543098 H 0.0 **** 0.06
23753 H 9.655255913021534 11.901966367736684 106.3067097636891 H 0.0 **** 0.06
23754 H 9.617463811548234 10.460450142713713 107.35153019985339 H 0.0 **** 0.06
23755 H 9.205365989111778 10.319343999159901 105.62546346810961 H 0.0 **** 0.06
23756 C 79.47089936983735 71.23445857608891 11.0374439268786 C 0.0 **** -0.24
23757 H 79.11825297489173 70.3362646624916 11.545387789695488 H 0.0 **** 0.06
23758 H 80.38035318430258 71.00372431840708 10.48212131996756 H 0.0 **** 0.06
23759 H 79.68140481105377 72.00913204839497 11.774731641554077 H 0.0 **** 0.06
23760 H 78.70290981365196 71.58709875176325 10.348502211165098 H 0.0 **** 0.06
23761 C 95.32715117703177 18.613880443737116 73.36699567107391 C 0.0 **** -0.24
23762 H 95.56192916827982 19.66733722169515 73.21889516373304 H 0.0 **** 0.06
23763 H 94.97179007298124 18.186163241314134 72.42944076935143 H 0.0 **** 0.06
23764 H 94.55203774296695 18.517392366344012 74.127929288329 H 0.0 **** 0.06
23765 H 96.2228477238991 18.08462894559507 73.69171746288228 H 0.0 **** 0.06
23766 C 105.11566787077086 81.40660389220906 32.33717936075403 C 0.0 **** -0.24
23767 H 105.23082149285271 80.9983896991161 31.33342964524534 H 0.0 **** 0.06
23768 H 105.92863569028468 81.04798823035296 32.97036649483587 H 0.0 **** 0.06
23769 H 104.16089504791708 81.08424324162814 32.753627692938004 H 0.0 **** 0.06
23770 H 105.1442239080594 82.4955715709543 32.291861780587894 H 0.0 **** 0.06
23771 C 4.85674937298424 106.84789902703855 51.39921073901607 C 0.0 **** -0.24
23772 H 4.889835831461397 105.82758713510425 51.01579884002413 H 0.0 **** 0.06
23773 H 3.8833960081937278 107.28693519387545 51.18102924680741 H 0.0 **** 0.06
23774 H 5.637169235242993 107.43961147602337 50.92054077668067 H 0.0 **** 0.06
23775 H 5.018230822556802 106.8358374553074 52.476526342094616 H 0.0 **** 0.06
23776 C 35.28222891775482 11.809076783357739 70.01268680122098 C 0.0 **** -0.24
23777 H 35.551416415504264 12.237832056426328 70.97798608839958 H 0.0 **** 0.06
23778 H 35.92553685221026 10.954288621328033 69.80299458841023 H 0.0 **** 0.06
23779 H 35.40962575215323 12.560795847648137 69.23357884189505 H 0.0 **** 0.06
23780 H 34.241456807015226 11.484228593943726 70.03691138915468 H 0.0 **** 0.06
23781 C 77.10934629642075 76.2391256021154 41.021300836773406 C 0.0 **** -0.24
23782 H 77.61183486060412 75.72796339367949 40.19928489363649 H 0.0 **** 0.06
23783 H 76.58287726284149 77.11293445599671 40.63762761347749 H 0.0 **** 0.06
23784 H 77.84891855131193 76.55432015516402 41.757761295851964 H 0.0 **** 0.06
23785 H 76.39631669686635 75.56048867624145 41.48857953703293 H 0.0 **** 0.06
23786 C 106.19748833427654 29.05159654659763 40.120868342562034 C 0.0 **** -0.24
23787 H 106.30833297208692 30.133855508097895 40.056683493675166 H 0.0 **** 0.06
23788 H 107.00562119599795 28.57145037653632 39.567854145448194 H 0.0 **** 0.06
23789 H 105.2393799103681 28.759894940454153 39.692173730776574 H 0.0 **** 0.06
23790 H 106.23736823325797 28.74385941134161 41.16524907143119 H 0.0 **** 0.06
23791 C 99.92956036132951 25.757367467940654 72.15386045979855 C 0.0 **** -0.24
23792 H 99.22583141310383 25.96447854723001 72.96084207849765 H 0.0 **** 0.06
23793 H 99.44610237946264 25.94093942300027 71.19457666248991 H 0.0 **** 0.06
23794 H 100.24682322683229 24.71550560563281 72.20862256947456 H 0.0 **** 0.06
23795 H 100.79813917246567 26.406661145971285 72.25481187534467 H 0.0 **** 0.06
23796 C 45.72655476743944 32.04507425988703 97.44648400514535 C 0.0 **** -0.24
23797 H 45.47030230799504 32.5403328457533 98.38382993099543 H 0.0 **** 0.06
23798 H 45.687424327686784 32.76886429136941 96.63171682425252 H 0.0 **** 0.06
23799 H 45.01606276332845 31.24162159706512 97.25477174345241 H 0.0 **** 0.06
23800 H 46.73207964299914 31.631870950026126 97.51847293371634 H 0.0 **** 0.06
23801 C 43.889253935874194 23.285823187513145 25.23046055756223 C 0.0 **** -0.24
23802 H 44.32065838992713 22.2973208888356 25.382565884911212 H 0.0 **** 0.06
23803 H 44.23819733173133 23.69186364312057 24.280447709955183 H 0.0 **** 0.06
23804 H 44.19546489967661 23.94570084433832 26.042381764050536 H 0.0 **** 0.06
23805 H 42.802157054437714 23.209916619675255 25.215788997461118 H 0.0 **** 0.06
23806 C 66.2886663055148 46.178707587059364 0.4817579913791121 C 0.0 **** -0.24
23807 H 65.69363947083207 46.577351432101636 1.3037080384484057 H 0.0 **** 0.06
23808 H 66.34096447617563 46.916954698856614 -0.31973118748794604 H 0.0 **** 0.06
23809 H 65.82436072511152 45.26725185925466 0.10603407176469659 H 0.0 **** 0.06
23810 H 67.29476281332589 45.95516455986552 0.8362858880616955 H 0.0 **** 0.06
23811 C 3.5336970309004414 64.83924227638863 79.47089972209025 C 0.0 **** -0.24
23812 H 3.631810221788129 65.7914433685865 79.99130105213379 H 0.0 **** 0.06
23813 H 4.464831325590353 64.27954598461668 79.5598361999796 H 0.0 **** 0.06
23814 H 3.316919267714894 65.0205682599269 78.41826541354837 H 0.0 **** 0.06
23815 H 2.720631389140749 64.26484884915817 79.91476924862368 H 0.0 **** 0.06
23816 C 77.59571384069369 95.60043231550416 72.00491856759874 C 0.0 **** -0.24
23817 H 78.0265372262379 94.7392332907897 72.51509121687178 H 0.0 **** 0.06
23818 H 78.32182173773049 96.00679409309436 71.30107617123446 H 0.0 **** 0.06
23819 H 77.33467362233426 96.36297492856177 72.73911711066643 H 0.0 **** 0.06
23820 H 76.69899759968413 95.29310657088304 71.46643310252267 H 0.0 **** 0.06
23821 C 36.45010742005721 23.315113947676764 35.473369068510465 C 0.0 **** -0.24
23822 H 36.786471595914605 22.5075748636944 34.823078765698284 H 0.0 **** 0.06
23823 H 35.38603483129302 23.198145892614804 35.67636084858677 H 0.0 **** 0.06
23824 H 36.62342105171868 24.2729565074072 34.98096495730516 H 0.0 **** 0.06
23825 H 37.0063189923668 23.282913974838607 36.409548804322355 H 0.0 **** 0.06
23826 C 34.493327677204974 51.580940368571106 104.67067995481841 C 0.0 **** -0.24
23827 H 34.26429283113811 50.52267880638712 104.54033322228788 H 0.0 **** 0.06
23828 H 35.36283554588212 51.841218144170085 104.06619728089156 H 0.0 **** 0.06
23829 H 34.707590267287145 51.77990981088851 105.72005755405188 H 0.0 **** 0.06
23830 H 33.63850104579191 52.17864878776987 104.35325309294183 H 0.0 **** 0.06
23831 C 69.32098090753419 47.55659576692717 37.54056189367875 C 0.0 **** -0.24
23832 H 68.53793696433758 46.89828213088636 37.1628277302161 H 0.0 **** 0.06
23833 H 69.61079244025788 47.23746256876709 38.542024831132636 H 0.0 **** 0.06
23834 H 68.94814512194367 48.57948523908974 37.57779423459515 H 0.0 **** 0.06
23835 H 70.18542488455574 47.50808037720176 36.878214866156995 H 0.0 **** 0.06
23836 C 13.309352360376604 18.401473690849972 70.93235755335854 C 0.0 **** -0.24
23837 H 12.855801297390563 17.548857757448236 70.42602045833354 H 0.0 **** 0.06
23838 H 12.531762389656286 18.981354398071737 71.43085426363021 H 0.0 **** 0.06
23839 H 13.818909835648288 19.028448100636073 70.20170106282 H 0.0 **** 0.06
23840 H 14.026980695065209 18.04481755918686 71.67013638947054 H 0.0 **** 0.06
23841 C 48.249671006630834 28.815732178715052 81.73176007861576 C 0.0 **** -0.24
23842 H 47.55655777521101 28.00636527903663 81.95895587783218 H 0.0 **** 0.06
23843 H 47.68869702021462 29.71216675469475 81.46658661105027 H 0.0 **** 0.06
23844 H 48.885516755326975 28.525043986779536 80.89560682755535 H 0.0 **** 0.06
23845 H 48.86883883174434 29.020414104582386 82.6048833219507 H 0.0 **** 0.06
23846 C 99.35612944149314 4.7014104189635475 63.32606796401227 C 0.0 **** -0.24
23847 H 98.4923118179225 4.368978007000777 63.90222118748875 H 0.0 **** 0.06
23848 H 99.22314114903621 5.744941865730851 63.042667384755774 H 0.0 **** 0.06
23849 H 99.45104034716313 4.089395427610455 62.42949379196189 H 0.0 **** 0.06
23850 H 100.25658403254192 4.599558364438991 63.931954425640114 H 0.0 **** 0.06
23851 C 85.25463568154305 52.71134863408527 3.1790307690808675 C 0.0 **** -0.24
23852 H 84.66009071642958 53.62227265921594 3.106653765227321 H 0.0 **** 0.06
23853 H 84.94463246849477 52.01312038506852 2.4021427559479207 H 0.0 **** 0.06
23854 H 85.1042194204827 52.256663371318915 4.158260555447896 H 0.0 **** 0.06
23855 H 86.30944161399162 52.95518484657625 3.049817440631955 H 0.0 **** 0.06
23856 C 25.305137419409817 100.20098025776711 63.44951849114193 C 0.0 **** -0.24
23857 H 24.899852200144778 101.07973841106822 63.95129903418524 H 0.0 **** 0.06
23858 H 25.22943902240786 100.3327548529542 62.370703000713775 H 0.0 **** 0.06
23859 H 24.739918952971436 99.31877257675771 63.74970408290045 H 0.0 **** 0.06
23860 H 26.351793115761183 100.07518498691758 63.72889667303747 H 0.0 **** 0.06
23861 C 4.635390400699961 96.31919249270526 50.03638270298245 C 0.0 **** -0.24
23862 H 5.142615040696157 96.23242209780878 49.07507640015018 H 0.0 **** 0.06
23863 H 4.899985835079036 95.4680458488807 50.66443317165903 H 0.0 **** 0.06
23864 H 3.5572644803200717 96.3329100903912 49.877181494625745 H 0.0 **** 0.06
23865 H 4.942331230228177 97.24309467323683 50.526492681711034 H 0.0 **** 0.06
23866 C 30.499295893129528 14.61922858364558 90.43842567359542 C 0.0 **** -0.24
23867 H 30.251656423250886 15.479833520506588 91.05881545847956 H 0.0 **** 0.06
23868 H 29.833031535955755 13.791298251003354 90.68332552146998 H 0.0 **** 0.06
23869 H 31.531845602160743 14.322196669519371 90.62438773296716 H 0.0 **** 0.06
23870 H 30.38143972556103 14.882820946508048 89.38806353149963 H 0.0 **** 0.06
23871 C 1.7464436670730805 28.109650666792305 3.3264000544588157 C 0.0 **** -0.24
23872 H 1.142813811409269 27.39044466926987 3.8786113970517135 H 0.0 **** 0.06
23873 H 1.3639218160989657 28.201431697311136 2.3099424924262166 H 0.0 **** 0.06
23874 H 2.7804453438114365 27.768281691061645 3.296128064231482 H 0.0 **** 0.06
23875 H 1.6982953726610504 29.079578170607448 3.8221934817640886 H 0.0 **** 0.06
23876 C 21.84553911927611 31.695763204536263 102.2141293447901 C 0.0 **** -0.24
23877 H 22.0479233515357 31.697029154275043 103.28500875473813 H 0.0 **** 0.06
23878 H 22.392001618495897 32.51228458725308 101.74020175517708 H 0.0 **** 0.06
23879 H 20.7773503769713 31.82703141765984 102.04665967135615 H 0.0 **** 0.06
23880 H 22.16752129204542 30.745694208494058 101.78470040929382 H 0.0 **** 0.06
23881 C 5.858385508980632 46.491240311750474 6.133306487315565 C 0.0 **** -0.24
23882 H 6.246972407209455 47.13836089615813 5.347672458264327 H 0.0 **** 0.06
23883 H 6.648009676990682 45.82426475528737 6.477988869581594 H 0.0 **** 0.06
23884 H 5.030089833860927 45.90134957273584 5.740618437326731 H 0.0 **** 0.06
23885 H 5.50722454427671 47.10076696819119 6.965102060516131 H 0.0 **** 0.06
23886 C 63.46965977177473 81.8050614067377 38.984656510263335 C 0.0 **** -0.24
23887 H 62.60443927216383 81.34964173142478 39.46645119202475 H 0.0 **** 0.06
23888 H 63.21749029468043 82.81738966385211 38.665912335230985 H 0.0 **** 0.06
23889 H 63.7567487087816 81.21149530598026 38.11692445772576 H 0.0 **** 0.06
23890 H 64.29979663207462 81.84296061071586 39.68999483269033 H 0.0 **** 0.06
23891 C 62.76152128072148 62.83193489281051 20.650070412547535 C 0.0 **** -0.24
23892 H 62.36927834686489 61.90242356847145 20.23830002298851 H 0.0 **** 0.06
23893 H 62.580775005425565 63.64528662191459 19.946229148425957 H 0.0 **** 0.06
23894 H 63.83365879327799 62.72985174198446 20.81978464116024 H 0.0 **** 0.06
23895 H 62.26222600490006 63.05023346970938 21.594242896987424 H 0.0 **** 0.06
23896 C 4.74996680138247 98.55398477846238 32.29769851858466 C 0.0 **** -0.24
23897 H 4.669449401677397 97.5014244502097 32.02825212549984 H 0.0 **** 0.06
23898 H 5.575171880316617 99.0071997434119 31.747584419958535 H 0.0 **** 0.06
23899 H 4.934774507519805 98.64180367104838 33.36813891533347 H 0.0 **** 0.06
23900 H 3.8206425604997207 99.06457187774825 32.04652139825744 H 0.0 **** 0.06
23901 C 98.50341301311475 52.277186277744306 25.597252792678148 C 0.0 **** -0.24
23902 H 97.68717716777735 51.83819477892848 25.02256916903525 H 0.0 **** 0.06
23903 H 98.10619588737885 53.03832949436969 26.268254455906742 H 0.0 **** 0.06
23904 H 99.22260524292811 52.73180595050724 24.916030221580343 H 0.0 **** 0.06
23905 H 98.99639945564398 51.500058883884776 26.180095843971287 H 0.0 **** 0.06
23906 C 36.375598478437354 94.41202409415607 47.570782877168476 C 0.0 **** -0.24
23907 H 35.35535365239616 94.79577403028674 47.575493774849775 H 0.0 **** 0.06
23908 H 36.41591360989315 93.49590452306684 46.982555647198 H 0.0 **** 0.06
23909 H 36.68820811612096 94.20183508035953 48.59377433099324 H 0.0 **** 0.06
23910 H 37.041192123136454 95.156533869619 47.132795377866245 H 0.0 **** 0.06
23911 C 40.36432101591126 8.62093983192409 66.88069699270827 C 0.0 **** -0.24
23912 H 41.29447767750398 8.194968243001028 67.25949587210759 H 0.0 **** 0.06
23913 H 40.47160940789516 9.701476822240068 66.79031623677591 H 0.0 **** 0.06
23914 H 39.55316886959719 8.391366827284912 67.57003583178738 H 0.0 **** 0.06
23915 H 40.142102457599236 8.19389256770711 65.90251793142167 H 0.0 **** 0.06
23916 C 73.0153335461938 44.636835378773725 102.92590004304196 C 0.0 **** -0.24
23917 H 73.82233671013722 45.11292821284448 103.48336236528189 H 0.0 **** 0.06
23918 H 72.26246364097588 44.26601573202356 103.62141381048201 H 0.0 **** 0.06
23919 H 73.41621560178407 43.80467800113931 102.34649740209886 H 0.0 **** 0.06
23920 H 72.56130733245743 45.363727696760606 102.25217942082674 H 0.0 **** 0.06
23921 C 57.502864866456186 59.9870107847257 74.7839359400691 C 0.0 **** -0.24
23922 H 56.41594410315206 60.04739058819871 74.71592628653048 H 0.0 **** 0.06
23923 H 57.944459506636086 60.33603052131849 73.8500033150018 H 0.0 **** 0.06
23924 H 57.798412073487086 58.9532922449111 74.96145637670762 H 0.0 **** 0.06
23925 H 57.8508623493807 60.6117884642932 75.60620918317383 H 0.0 **** 0.06
23926 C 71.73271596320615 40.393274302315206 89.22065158501202 C 0.0 **** -0.24
23927 H 72.1679621004772 39.43528480887912 88.93496352107502 H 0.0 **** 0.06
23928 H 70.7567620292787 40.50468033988122 88.74726552495103 H 0.0 **** 0.06
23929 H 72.38905769404651 41.200512768605165 88.89494110508484 H 0.0 **** 0.06
23930 H 71.61817089682566 40.43140920207529 90.30360579941029 H 0.0 **** 0.06
23931 C 53.542918895709136 79.69914539292465 27.322920229131483 C 0.0 **** -0.24
23932 H 53.85294835273319 80.31378045594928 28.168309017904505 H 0.0 **** 0.06
23933 H 52.49927288022329 79.90882701369695 27.085504169734747 H 0.0 **** 0.06
23934 H 53.65204732408728 78.64577671377813 27.581503157851103 H 0.0 **** 0.06
23935 H 54.16682574074022 79.92807581951544 26.459305275569704 H 0.0 **** 0.06
23936 C 31.046696432330123 2.944128171682479 56.645706747299364 C 0.0 **** -0.24
23937 H 31.769528283486125 2.853622831508403 55.8354897635339 H 0.0 **** 0.06
23938 H 30.158410449954943 2.359938454929136 56.406637579212266 H 0.0 **** 0.06
23939 H 30.770267466167212 3.9917150325143496 56.77037254998408 H 0.0 **** 0.06
23940 H 31.488525695491475 2.5724542151861556 57.571044063456704 H 0.0 **** 0.06
23941 C 33.26113181797331 55.57031273856718 43.39517713185404 C 0.0 **** -0.24
23942 H 32.23919840262772 55.41034305609699 43.7385158706214 H 0.0 **** 0.06
23943 H 33.89708973056075 55.812212731077025 44.246622154010765 H 0.0 **** 0.06
23944 H 33.278359455163724 56.39450356446372 42.68193074543251 H 0.0 **** 0.06
23945 H 33.62819615260389 54.66381567031883 42.912216862864824 H 0.0 **** 0.06
23946 C 42.28625801237237 53.241762093096455 48.551971564643836 C 0.0 **** -0.24
23947 H 42.151285162927365 53.3485421955207 47.474910229537905 H 0.0 **** 0.06
23948 H 41.35427652677029 52.89758200851407 49.00115005895441 H 0.0 **** 0.06
23949 H 42.562632449678034 54.2049230205458 48.97983352908925 H 0.0 **** 0.06
23950 H 43.07437139462888 52.51639409358474 48.74886791995078 H 0.0 **** 0.06
23951 C 36.08551386726887 2.3795372923561224 27.04629498488356 C 0.0 **** -0.24
23952 H 35.30152547943729 1.8084383317052604 26.54932126619923 H 0.0 **** 0.06
23953 H 36.97400912564083 1.7572587467740481 27.154559971873084 H 0.0 **** 0.06
23954 H 35.7381468135855 2.692115547565381 28.031825675648463 H 0.0 **** 0.06
23955 H 36.32696739394106 3.259531610686145 26.450645026292932 H 0.0 **** 0.06
23956 C 15.116631596593603 10.614305132252468 35.077164121806305 C 0.0 **** -0.24
23957 H 14.61137972003512 9.81794972864418 34.5294275218545 H 0.0 **** 0.06
23958 H 15.752724577759615 11.177918879522792 34.39393281729292 H 0.0 **** 0.06
23959 H 15.726881326090723 10.180044036808908 35.86818953967901 H 0.0 **** 0.06
23960 H 14.37331490610152 11.279845522608753 35.51540146239802 H 0.0 **** 0.06
23961 C 68.92567881467801 62.428205034586995 54.726189965255514 C 0.0 **** -0.24
23962 H 68.17249255716666 63.03508993775941 54.224870876648964 H 0.0 **** 0.06
23963 H 69.72341984048086 62.18688145978686 54.02407824223209 H 0.0 **** 0.06
23964 H 68.4675094540139 61.50679901925275 55.08709514373308 H 0.0 **** 0.06
23965 H 69.33818813728652 62.98316763117779 55.56869591539737 H 0.0 **** 0.06
23966 C 36.242837412017224 27.975533583821317 47.56057999072006 C 0.0 **** -0.24
23967 H 36.02493861804069 28.970295977075665 47.17261790723003 H 0.0 **** 0.06
23968 H 35.481264958683056 27.276223327766445 47.21413473519336 H 0.0 **** 0.06
23969 H 36.24417588505153 28.001479640641293 48.65038443612822 H 0.0 **** 0.06
23970 H 37.221074901917746 27.65339468221208 47.20398268476146 H 0.0 **** 0.06
23971 C 94.82223656137138 24.19292964316869 17.629106441258642 C 0.0 **** -0.24
23972 H 94.61509703391627 25.180161593606837 18.04310527883274 H 0.0 **** 0.06
23973 H 93.88600753627395 23.72107634591244 17.330278058127504 H 0.0 **** 0.06
23974 H 95.31451430048381 23.579046797479595 18.38275035161115 H 0.0 **** 0.06
23975 H 95.47323515014808 24.293665918534582 16.760389703112025 H 0.0 **** 0.06
23976 C 58.45855698898782 14.660687660428792 40.60889623349493 C 0.0 **** -0.24
23977 H 58.19040538571376 14.533482483292872 39.560284652379806 H 0.0 **** 0.06
23978 H 58.599060167338415 13.682483646798133 41.06955175039769 H 0.0 **** 0.06
23979 H 57.661092651851604 15.194646762510786 41.1263197033592 H 0.0 **** 0.06
23980 H 59.383930958466735 15.233149522787741 40.6803818109548 H 0.0 **** 0.06
23981 C 46.99208068943637 43.13630837852919 12.248753897957656 C 0.0 **** -0.24
23982 H 47.02800273893153 42.06815505709972 12.465509168305317 H 0.0 **** 0.06
23983 H 47.986872461620116 43.56586930271558 12.370073657997352 H 0.0 **** 0.06
23984 H 46.2987544648251 43.622602129788135 12.93471076496499 H 0.0 **** 0.06
23985 H 46.65352309128142 43.286219423030026 11.223332442703438 H 0.0 **** 0.06
23986 C 42.08530600070182 100.48272089552182 90.81420130422255 C 0.0 **** -0.24
23987 H 42.26794826357201 100.36923598722002 91.88292189464894 H 0.0 **** 0.06
23988 H 42.52209526420339 101.41947555982198 90.46781055134967 H 0.0 **** 0.06
23989 H 41.01126177628541 100.49214079445706 90.62808310024715 H 0.0 **** 0.06
23990 H 42.53991869874645 99.65003124058795 90.27798967064417 H 0.0 **** 0.06
23991 C 59.47855414589034 104.2410552865854 82.79215053887698 C 0.0 **** -0.24
23992 H 58.435883783969075 104.27532749742993 82.47441842864862 H 0.0 **** 0.06
23993 H 59.62598317646916 104.92487353004577 83.62846927532613 H 0.0 **** 0.06
23994 H 60.120543973718725 104.53773340626854 81.96266644221937 H 0.0 **** 0.06
23995 H 59.730042643270764 103.2268947170391 83.10181416564014 H 0.0 **** 0.06
23996 C 59.633076168974554 72.29041546135213 54.18537790551011 C 0.0 **** -0.24
23997 H 60.05766180778295 73.28950013425535 54.08019414431976 H 0.0 **** 0.06
23998 H 58.906547656063594 72.2890710489146 54.99713289280166 H 0.0 **** 0.06
23999 H 60.42882816874928 71.57928581000897 54.407411882139286 H 0.0 **** 0.06
24000 H 59.1410076895354 72.00684167257097 53.25545038754555 H 0.0 **** 0.06
24001 C 28.45705776804334 23.416095812427177 69.22289771431264 C 0.0 **** -0.24
24002 H 27.520111695363255 23.085924707938517 69.67126117969195 H 0.0 **** 0.06
24003 H 29.078380153877163 23.88618905848937 69.98452655720695 H 0.0 **** 0.06
24004 H 28.246823510413492 24.135149375410258 68.43037623566323 H 0.0 **** 0.06
24005 H 28.981921409186242 22.557019875551003 68.80442618170525 H 0.0 **** 0.06
24006 C 2.6221457889663498 36.12545554636449 79.27657231619048 C 0.0 **** -0.24
24007 H 2.347433982224004 35.08774785561104 79.47012064503429 H 0.0 **** 0.06
24008 H 3.382000377235613 36.15959928567523 78.49649868568997 H 0.0 **** 0.06
24009 H 3.0160607867797466 36.57275755828394 80.18936561558928 H 0.0 **** 0.06
24010 H 1.7406762017736241 36.67912776024997 78.95151969850394 H 0.0 **** 0.06
24011 C 69.98304744696524 98.12584975063437 24.910608477179732 C 0.0 **** -0.24
24012 H 69.29111666461932 97.48263645976145 25.453147972563816 H 0.0 **** 0.06
24013 H 69.4610950198978 99.0260207549128 24.58352040175327 H 0.0 **** 0.06
24014 H 70.36875814279608 97.59294477993657 24.041276965733132 H 0.0 **** 0.06
24015 H 70.81025630645655 98.40255171039887 25.563780128786494 H 0.0 **** 0.06
24016 C 24.836092073293486 1.1742484791275416 29.85798709265198 C 0.0 **** -0.24
24017 H 25.69196128434666 1.0457782521454106 29.195224684723122 H 0.0 **** 0.06
24018 H 23.965412989599628 1.4705213310442389 29.27225159216487 H 0.0 **** 0.06
24019 H 25.058556822001293 1.9449016455076134 30.594632696178607 H 0.0 **** 0.06
24020 H 24.628154900192385 0.233244175588041 30.368281896897145 H 0.0 **** 0.06
24021 C 51.9134741376707 58.4407103556436 75.7498643744521 C 0.0 **** -0.24
24022 H 52.17748505677878 58.94312752511017 74.81894066156707 H 0.0 **** 0.06
24023 H 51.81102553457394 57.369956621749154 75.56751709128565 H 0.0 **** 0.06
24024 H 50.96896987849995 58.8382596161777 76.12063515836468 H 0.0 **** 0.06
24025 H 52.69501066412072 58.610553808555274 76.48902773270316 H 0.0 **** 0.06
24026 C 46.02032139685912 6.463060392129506 89.0837783923744 C 0.0 **** -0.24
24027 H 46.44728206856083 7.394760747469093 88.71431569749731 H 0.0 **** 0.06
24028 H 45.95382674889664 6.500146238428158 90.1711453092359 H 0.0 **** 0.06
24029 H 46.65659359688132 5.62885369592729 88.78734187896188 H 0.0 **** 0.06
24030 H 45.02426263879549 6.328122972704435 88.66295120701817 H 0.0 **** 0.06
24031 C 56.20427251381544 99.2911838559686 55.49561962115059 C 0.0 **** -0.24
24032 H 55.12683679106966 99.2575016547683 55.33424280348036 H 0.0 **** 0.06
24033 H 56.717321827638315 99.25181133640831 54.53497822578096 H 0.0 **** 0.06
24034 H 56.506075023051025 98.43775559976234 56.104559078110384 H 0.0 **** 0.06
24035 H 56.465876622116035 100.21528305488755 56.01121992629463 H 0.0 **** 0.06
24036 C 38.683883424817 53.626988237851776 8.615824506695898 C 0.0 **** -0.24
24037 H 39.52876751554365 53.6703368427365 7.927513862889006 H 0.0 **** 0.06
24038 H 38.52676126877614 52.59561654554875 8.932630123590211 H 0.0 **** 0.06
24039 H 37.78849166668988 53.99351695144111 8.113845416923805 H 0.0 **** 0.06
24040 H 38.89290907958542 54.248543775437895 9.485837520015394 H 0.0 **** 0.06
24041 C 23.829957051319926 51.199886105120186 21.625551432256117 C 0.0 **** -0.24
24042 H 24.168012581672993 51.99739511744999 22.28714763594732 H 0.0 **** 0.06
24043 H 24.580481449789843 50.40941526059261 21.597025701687272 H 0.0 **** 0.06
24044 H 23.684222383845977 51.599639160415855 20.621675622596044 H 0.0 **** 0.06
24045 H 22.888771540247934 50.794886360332896 21.996166740458904 H 0.0 **** 0.06
24046 C 52.614470917220615 71.24253216851099 11.71126094824811 C 0.0 **** -0.24
24047 H 52.21064262845323 71.83493580112227 12.531643973400378 H 0.0 **** 0.06
24048 H 53.155330172154976 70.38531605783564 12.114333636617289 H 0.0 **** 0.06
24049 H 53.29436225838771 71.85501914664962 11.11984643214629 H 0.0 **** 0.06
24050 H 51.79711998873222 70.89267127596042 11.079410019289355 H 0.0 **** 0.06
24051 C 17.668209218029858 13.351102468198121 50.614497918189414 C 0.0 **** -0.24
24052 H 17.0261662776237 13.325059307269584 49.73444320905307 H 0.0 **** 0.06
24053 H 17.4451638053784 12.494517881511797 51.25128229099877 H 0.0 **** 0.06
24054 H 17.489019203691328 14.27254784644461 51.16798688298215 H 0.0 **** 0.06
24055 H 18.712456565216712 13.311003870368722 50.303680747427364 H 0.0 **** 0.06
24056 C 79.76032087756442 16.11506638221215 15.151891833752451 C 0.0 **** -0.24
24057 H 80.27770630148186 15.2781895059548 14.683330096875217 H 0.0 **** 0.06
24058 H 79.25182968551266 16.702032854597036 14.385808377806718 H 0.0 **** 0.06
24059 H 80.48411178681599 16.743567333476733 15.67152056464467 H 0.0 **** 0.06
24060 H 79.02915073180029 15.737097503391112 15.865385617940756 H 0.0 **** 0.06
24061 C 80.5528080843589 83.9261301646292 97.6048769407438 C 0.0 **** -0.24
24062 H 81.59249566756489 84.16808202679265 97.82801319339245 H 0.0 **** 0.06
24063 H 80.5078556682501 82.97493584548398 97.07475021812445 H 0.0 **** 0.06
24064 H 80.1228450097862 84.71123392541467 96.9830180015714 H 0.0 **** 0.06
24065 H 79.99083871424745 83.85047541917353 98.53619671937261 H 0.0 **** 0.06
24066 C 42.83128241092933 101.6791409047175 85.79876076219155 C 0.0 **** -0.24
24067 H 42.23519876459622 102.50820555441555 85.41729935669832 H 0.0 **** 0.06
24068 H 42.3137489266845 101.21484817755443 86.63807718185886 H 0.0 **** 0.06
24069 H 43.80089427543563 102.05140672621202 86.12963793353262 H 0.0 **** 0.06
24070 H 42.97614072471532 100.94266149773767 85.00780128109102 H 0.0 **** 0.06
24071 C 60.851582736792935 22.454962605949163 75.90927826508621 C 0.0 **** -0.24
24072 H 61.184570876163846 23.395209621115953 75.47007541342614 H 0.0 **** 0.06
24073 H 61.11362984447237 21.631501911059786 75.24451324594716 H 0.0 **** 0.06
24074 H 59.77099975172262 22.481204860339346 76.04717833671927 H 0.0 **** 0.06
24075 H 61.33819254759314 22.313031780066126 76.87371291415073 H 0.0 **** 0.06
24076 C 40.14109786078893 21.482141813114737 95.12210722156459 C 0.0 **** -0.24
24077 H 40.59823765841696 22.431896153554703 95.39845767339273 H 0.0 **** 0.06
24078 H 40.017726656202456 21.43990694790253 94.03899847235681 H 0.0 **** 0.06
24079 H 39.16634781121019 21.39428167522027 95.60267217699612 H 0.0 **** 0.06
24080 H 40.78167649848672 20.66234216533954 95.44695217853194 H 0.0 **** 0.06
24081 C 104.0404019448776 63.35177002191955 20.299126377947005 C 0.0 **** -0.24
24082 H 103.33619837360618 62.59869274240879 20.654878703242616 H 0.0 **** 0.06
24083 H 103.64666795575425 64.34639561829715 20.511979016292457 H 0.0 **** 0.06
24084 H 104.18015592832216 63.23797461196369 19.224154688370163 H 0.0 **** 0.06
24085 H 104.99671411294054 63.222823196991556 20.805223625150802 H 0.0 **** 0.06
24086 C 36.626121420166925 69.87493352105766 74.724445878781 C 0.0 **** -0.24
24087 H 35.78762982512504 69.1853767319703 74.83069119473066 H 0.0 **** 0.06
24088 H 37.24742221385688 69.83130272984475 75.61958521725784 H 0.0 **** 0.06
24089 H 36.24878849960123 70.88822656652712 74.59329063723087 H 0.0 **** 0.06
24090 H 37.22035172645755 69.59283369042573 73.85518426955798 H 0.0 **** 0.06
24091 C 46.41150464649547 22.875452627845817 67.2907508932806 C 0.0 **** -0.24
24092 H 47.38918523350003 22.452807739437077 67.51958187406916 H 0.0 **** 0.06
24093 H 45.71890140177857 22.072661181994476 67.03720925280564 H 0.0 **** 0.06
24094 H 46.500500255700615 23.55862245098399 66.44544471718118 H 0.0 **** 0.06
24095 H 46.038005142055624 23.418537577257695 68.15876734223284 H 0.0 **** 0.06
24096 C 32.61690964646897 67.41271450732336 37.042844074936276 C 0.0 **** -0.24
24097 H 32.25176539270524 68.10701610533454 37.80099628119937 H 0.0 **** 0.06
24098 H 33.54995799558009 67.79100913806906 36.623446023073406 H 0.0 **** 0.06
24099 H 31.87418277632446 67.31719013488168 36.25153342518822 H 0.0 **** 0.06
24100 H 32.79176663140004 66.43791802866804 37.49837077748969 H 0.0 **** 0.06
24101 C 100.2548716802632 84.40681826603806 58.525056097862254 C 0.0 **** -0.24
24102 H 100.47042862740409 85.05906107468473 59.37122524081527 H 0.0 **** 0.06
24103 H 101.00005920244689 84.56559687887388 57.745342283043584 H 0.0 **** 0.06
24104 H 99.26390136679157 84.6349314141629 58.133109778488986 H 0.0 **** 0.06
24105 H 100.28668831850854 83.36648462256682 58.85036881908971 H 0.0 **** 0.06
24106 C 54.49877060324692 12.566889187401728 23.563490908102835 C 0.0 **** -0.24
24107 H 54.88061962365277 12.569396066940968 22.542858397863228 H 0.0 **** 0.06
24108 H 53.53881991533231 12.050464766952445 23.591441622667105 H 0.0 **** 0.06
24109 H 54.36957374988236 13.593532307028312 23.90622664846731 H 0.0 **** 0.06
24110 H 55.20705780198202 12.052962720309424 24.215043392196606 H 0.0 **** 0.06
24111 C 16.951540445498836 37.42161936124232 1.6187348055720658 C 0.0 **** -0.24
24112 H 16.672489402632436 38.011600292272036 0.7452419537530472 H 0.0 **** 0.06
24113 H 17.114213322485455 38.08458924030363 2.4679721929163376 H 0.0 **** 0.06
24114 H 17.867654566108513 36.870791577163594 1.4068094557046518 H 0.0 **** 0.06
24115 H 16.1508567166926 36.719787735152664 1.8529113642857018 H 0.0 **** 0.06
24116 C 29.407075578349094 10.431591684977356 3.4170718366381294 C 0.0 **** -0.24
24117 H 28.417102412360208 10.636776660752258 3.0112382428192035 H 0.0 **** 0.06
24118 H 29.74823686219193 9.45677672608237 3.0665742672984067 H 0.0 **** 0.06
24119 H 29.360488116608877 10.430778955465138 4.505731848109008 H 0.0 **** 0.06
24120 H 30.103154295114393 11.201919102094642 3.083507977584617 H 0.0 **** 0.06
24121 C 51.78151571765674 38.64634879556152 100.03608187366474 C 0.0 **** -0.24
24122 H 51.111216077587585 37.78916297411786 100.10024238441548 H 0.0 **** 0.06
24123 H 51.44999903702352 39.41905960759478 100.72976436753282 H 0.0 **** 0.06
24124 H 51.771909020019685 39.04078124648983 99.02038338301128 H 0.0 **** 0.06
24125 H 52.79372730118873 38.33469118505705 100.2951571222155 H 0.0 **** 0.06
24126 C 89.60798036195513 42.02271749654312 15.174701768514211 C 0.0 **** -0.24
24127 H 89.55694172526336 43.05860629640401 15.510673760885865 H 0.0 **** 0.06
24128 H 88.63078531592936 41.55460414763516 15.28991203517593 H 0.0 **** 0.06
24129 H 90.34227170671186 41.483430942046226 15.771900122485647 H 0.0 **** 0.06
24130 H 89.9024355764262 41.99575669686965 14.124771281917987 H 0.0 **** 0.06
24131 C 8.794445418933165 89.36641629054893 14.902180448859898 C 0.0 **** -0.24
24132 H 8.98567551965695 88.30539588866377 14.742225911046638 H 0.0 **** 0.06
24133 H 9.517423683292648 89.76212358948003 15.615720135744152 H 0.0 **** 0.06
24134 H 7.786271425044944 89.49843142388764 15.293480662528612 H 0.0 **** 0.06
24135 H 8.889310844744756 89.89806369130619 13.954752164911614 H 0.0 **** 0.06
24136 C 24.840043516229013 13.4327062865068 17.60346458941062 C 0.0 **** -0.24
24137 H 25.665381156513195 12.811367985981235 17.95252940940381 H 0.0 **** 0.06
24138 H 24.890207582972746 13.526031180506408 16.51776029068236 H 0.0 **** 0.06
24139 H 24.91192168447579 14.420889865027533 18.0571720113101 H 0.0 **** 0.06
24140 H 23.894113253681734 12.97131883733826 17.884841932281645 H 0.0 **** 0.06
24141 C 74.14680361996363 4.26282318027819 77.37578157090229 C 0.0 **** -0.24
24142 H 73.3741876196832 4.96546365454418 77.68754522339947 H 0.0 **** 0.06
24143 H 74.95212877495095 4.803821140038053 76.88008483282175 H 0.0 **** 0.06
24144 H 73.71781758301412 3.535481355814568 76.68564708054919 H 0.0 **** 0.06
24145 H 74.54072898726025 3.744763715584554 78.25045175257821 H 0.0 **** 0.06
24146 C 16.98277204574192 56.044517104086275 88.01807844340863 C 0.0 **** -0.24
24147 H 16.554523574152828 57.00234675943922 88.31329243324977 H 0.0 **** 0.06
24148 H 18.068196382309328 56.08616471334007 88.11695849757916 H 0.0 **** 0.06
24149 H 16.71993875382298 55.83205875328638 86.98218473266839 H 0.0 **** 0.06
24150 H 16.590086661376713 55.256953215414754 88.66159770436732 H 0.0 **** 0.06
24151 C 102.83647785243694 93.27864168139236 88.43629696766143 C 0.0 **** -0.24
24152 H 102.3327839400567 92.8957920222378 89.32378064608176 H 0.0 **** 0.06
24153 H 103.887332922515 92.98883001969497 88.46114785587517 H 0.0 **** 0.06
24154 H 102.75917930320216 94.36563107862713 88.41583518966709 H 0.0 **** 0.06
24155 H 102.36567399657551 92.86464674600971 87.5443683537816 H 0.0 **** 0.06
24156 C 95.80327741705275 78.17230399287496 30.963225299637678 C 0.0 **** -0.24
24157 H 95.64136391822791 78.15292410836798 32.04042773812516 H 0.0 **** 0.06
24158 H 96.73434839725769 77.6568310456452 30.72618899545317 H 0.0 **** 0.06
24159 H 95.86294004827653 79.20597828180118 30.623649818134524 H 0.0 **** 0.06
24160 H 94.97377157883864 77.67292869056583 30.462162331245302 H 0.0 **** 0.06
24161 C 0.2987536688646344 41.303367944788704 60.02405365169153 C 0.0 **** -0.24
24162 H 0.44989589807849484 42.36550139215956 60.213883110245284 H 0.0 **** 0.06
24163 H -0.7600741345560351 41.11265146164777 59.84772544903698 H 0.0 **** 0.06
24164 H 0.6337486166290489 40.72827025825757 60.88681938311929 H 0.0 **** 0.06
24165 H 0.871970772198452 41.00626856655086 59.14575824244813 H 0.0 **** 0.06
24166 C 97.33071755560525 0.6219462208783426 86.932971623104 C 0.0 **** -0.24
24167 H 96.28786537436685 0.35832759168260964 86.75783386143459 H 0.0 **** 0.06
24168 H 97.75018275575604 1.0680291965959867 86.03062652229346 H 0.0 **** 0.06
24169 H 97.89448431027932 -0.2743008963195166 87.19124443318293 H 0.0 **** 0.06
24170 H 97.39112523741505 1.337554872083743 87.75361218261044 H 0.0 **** 0.06
24171 C 9.116493538921645 80.42093107439953 99.6252848400238 C 0.0 **** -0.24
24172 H 8.54858138668419 79.89078673399328 98.86048716029813 H 0.0 **** 0.06
24173 H 10.178871817605113 80.37642087270055 99.38503506680216 H 0.0 **** 0.06
24174 H 8.942433810847547 79.95358448707185 100.59521584214663 H 0.0 **** 0.06
24175 H 8.794308697780707 81.46079645804454 99.65987583901442 H 0.0 **** 0.06
24176 C 42.898006284667105 104.99386095982274 17.099717926249724 C 0.0 **** -0.24
24177 H 43.794357650972046 104.37597322559753 17.046758694663993 H 0.0 **** 0.06
24178 H 42.961522929338315 105.7907455876102 16.358756232065275 H 0.0 **** 0.06
24179 H 42.81419077224572 105.42862336331702 18.095252594152896 H 0.0 **** 0.06
24180 H 42.02109480111059 104.37838588502665 16.896955932508888 H 0.0 **** 0.06
24181 C 24.622173276234264 52.37293993757743 72.79196293022824 C 0.0 **** -0.24
24182 H 23.673133469024606 52.81206593290505 73.09981276372861 H 0.0 **** 0.06
24183 H 25.070546970717032 51.84716580494132 73.63497556411676 H 0.0 **** 0.06
24184 H 25.294957053056123 53.1618571589794 72.45628407096734 H 0.0 **** 0.06
24185 H 24.450121099480043 51.67119402218571 71.97592958569066 H 0.0 **** 0.06
24186 C 90.4575924783455 44.67812838189724 90.25814828350919 C 0.0 **** -0.24
24187 H 90.38591976140478 45.42307928320403 89.46561633598385 H 0.0 **** 0.06
24188 H 91.50155955979216 44.55150136649766 90.54392269544022 H 0.0 **** 0.06
24189 H 90.06061585769584 43.72872801821768 89.89928312431904 H 0.0 **** 0.06
24190 H 89.88069858290262 45.010980504184744 91.12145508985503 H 0.0 **** 0.06
24191 C 73.26068279775231 92.57199151119102 17.107009939864145 C 0.0 **** -0.24
24192 H 73.33172763359647 91.53783218167695 17.444857310802 H 0.0 **** 0.06
24193 H 72.53299750119513 92.64048638431487 16.29795722207234 H 0.0 **** 0.06
24194 H 74.23473503052347 92.90443816361142 16.74824793786758 H 0.0 **** 0.06
24195 H 72.94392165192934 93.20446989250999 17.935962383920366 H 0.0 **** 0.06
24196 C 77.97972212207327 98.07428761727208 46.758240831407534 C 0.0 **** -0.24
24197 H 76.88927545747075 98.06687064160471 46.748503325199465 H 0.0 **** 0.06
24198 H 78.33440912124456 97.9018280605716 47.77421746752128 H 0.0 **** 0.06
24199 H 78.33946393842723 99.0419247741549 46.406922010130984 H 0.0 **** 0.06
24200 H 78.35458830581948 97.2878181115562 46.103237955497775 H 0.0 **** 0.06
24201 C 16.234335946292447 35.53321327117044 92.87081174146986 C 0.0 **** -0.24
24202 H 16.71270119707293 35.441413207523794 91.89606453847644 H 0.0 **** 0.06
24203 H 15.154185094978288 35.43766982505937 92.75663498431938 H 0.0 **** 0.06
24204 H 16.468961247511857 36.506512404261116 93.30127713203788 H 0.0 **** 0.06
24205 H 16.600666819671687 34.74642315156623 93.53005501524903 H 0.0 **** 0.06
24206 C 68.15414532104141 0.1373831539669368 41.5662860656216 C 0.0 **** -0.24
24207 H 67.5610145524025 0.8603716540483219 42.12682621211039 H 0.0 **** 0.06
24208 H 69.02881284479786 -0.14798492839889832 42.151508696231645 H 0.0 **** 0.06
24209 H 68.47566856183556 0.5824538698764741 40.62447313941544 H 0.0 **** 0.06
24210 H 67.5493953686603 -0.7467595575215 41.36252908535886 H 0.0 **** 0.06
24211 C 101.85322151733729 57.27902579635744 105.1906282911053 C 0.0 **** -0.24
24212 H 102.43609095756747 56.4070328102872 104.89371051997558 H 0.0 **** 0.06
24213 H 102.25283882920652 58.16786115718997 104.7020984295758 H 0.0 **** 0.06
24214 H 101.91143820333068 57.40221913066526 106.27215727123897 H 0.0 **** 0.06
24215 H 100.81333510651515 57.13809983626715 104.8957879342449 H 0.0 **** 0.06
24216 C 81.40264709952679 95.85810603541795 89.96252575094867 C 0.0 **** -0.24
24217 H 82.06765387782345 96.49906541784974 89.38379372561245 H 0.0 **** 0.06
24218 H 81.15409805620392 94.97232879668115 89.37923191853986 H 0.0 **** 0.06
24219 H 80.49009957471635 96.40440742068542 90.20208897978966 H 0.0 **** 0.06
24220 H 81.90031068478439 95.55849850592637 90.88505217833819 H 0.0 **** 0.06
24221 C 81.07621479825153 21.84640400355576 40.991667311112025 C 0.0 **** -0.24
24222 H 80.78596135868852 20.857773204369053 41.34804325841881 H 0.0 **** 0.06
24223 H 80.68594570285603 22.606231433145638 41.66964966574048 H 0.0 **** 0.06
24224 H 80.66847632661988 22.006776447644654 39.99321162297679 H 0.0 **** 0.06
24225 H 82.16294919126332 21.915220139140473 40.95504275387759 H 0.0 **** 0.06
24226 C 79.8741626757343 8.03580226647249 29.83363742315406 C 0.0 **** -0.24
24227 H 80.4502132475745 7.321566644822253 30.421226465287162 H 0.0 **** 0.06
24228 H 78.88063284586431 8.14725802589945 30.270170227643035 H 0.0 **** 0.06
24229 H 79.78355214455605 7.675344040026353 28.808643600813355 H 0.0 **** 0.06
24230 H 80.38193439152789 9.00098667531748 29.835563390010286 H 0.0 **** 0.06
24231 C 77.51254200767914 94.98461402572138 36.29761200716891 C 0.0 **** -0.24
24232 H 77.89111063548317 94.045399840771 35.8946043092314 H 0.0 **** 0.06
24233 H 76.67381778022475 94.78062552061559 36.96451090999659 H 0.0 **** 0.06
24234 H 77.1790666955468 95.62187449692414 35.47894480457012 H 0.0 **** 0.06
24235 H 78.30364646950288 95.48792628958397 36.851550728325236 H 0.0 **** 0.06
24236 C 42.867364405316124 50.07415358811227 75.85916045785353 C 0.0 **** -0.24
24237 H 43.161733319581856 49.319153154788125 75.13001986407562 H 0.0 **** 0.06
24238 H 42.00727678287387 49.71604744208912 76.4251259926873 H 0.0 **** 0.06
24239 H 42.602960486468334 50.99561206330728 75.34004431411597 H 0.0 **** 0.06
24240 H 43.69732770424055 50.26591359522129 76.53862987729252 H 0.0 **** 0.06
24241 C 40.081126239210306 2.821520335137251 75.93975429376763 C 0.0 **** -0.24
24242 H 39.82568954755337 2.5475595385245526 76.963514665572 H 0.0 **** 0.06
24243 H 39.61184279283249 2.121298493341328 75.2486572464519 H 0.0 **** 0.06
24244 H 41.16299340767577 2.7873136276434707 75.81420348937445 H 0.0 **** 0.06
24245 H 39.72304786837175 3.830775447075638 75.73473541416337 H 0.0 **** 0.06
24246 C 27.954044478207383 90.32380876826235 31.10934259356833 C 0.0 **** -0.24
24247 H 27.548637939358347 89.35427146595205 30.818090615394738 H 0.0 **** 0.06
24248 H 27.562718471357556 91.0946726444051 30.444275964753103 H 0.0 **** 0.06
24249 H 29.041495852574172 90.29821236812808 31.03785798141405 H 0.0 **** 0.06
24250 H 27.661411635660656 90.54650800622667 32.13545164106239 H 0.0 **** 0.06
24251 C 92.27114097320326 66.54303074162523 21.08373172810417 C 0.0 **** -0.24
24252 H 92.35378896494122 66.54410097674797 19.997316141609623 H 0.0 **** 0.06
24253 H 92.64788099035114 67.4875329815741 21.477035952918115 H 0.0 **** 0.06
24254 H 92.8561267907848 65.719622180728 21.492528262486054 H 0.0 **** 0.06
24255 H 91.22558852390452 66.42265960746377 21.36867664927487 H 0.0 **** 0.06
24256 C 54.25123350325339 63.37319007764127 5.899459022858776 C 0.0 **** -0.24
24257 H 53.280612044846485 63.86008353034994 5.992046500073979 H 0.0 **** 0.06
24258 H 54.27789733940039 62.49061800835297 6.539975511840366 H 0.0 **** 0.06
24259 H 55.03568216125363 64.06636985550678 6.202521372007304 H 0.0 **** 0.06
24260 H 54.41013355018686 63.07490598372489 4.863165105656275 H 0.0 **** 0.06
24261 C 104.29399028230179 34.11487668366823 25.268005115866686 C 0.0 **** -0.24
24262 H 103.59051486594313 34.75927036890283 25.796095889918433 H 0.0 **** 0.06
24263 H 104.9206978959665 34.72149943617558 24.61407459730779 H 0.0 **** 0.06
24264 H 103.7428921361751 33.38783795545646 24.6711322240632 H 0.0 **** 0.06
24265 H 104.92004427238197 33.593070614119455 25.99068378601652 H 0.0 **** 0.06
24266 C 105.20373034120891 72.08155096595173 83.54640030840538 C 0.0 **** -0.24
24267 H 105.314619484764 71.26914625627313 84.26449701935246 H 0.0 **** 0.06
24268 H 104.15331706927478 72.36833847503586 83.4836814385027 H 0.0 **** 0.06
24269 H 105.54911962557068 71.75080519896197 82.56703001294386 H 0.0 **** 0.06
24270 H 105.79596484244055 72.93685896719134 83.87220276605268 H 0.0 **** 0.06
24271 C 18.977285749850438 91.23327171498629 54.161870557231055 C 0.0 **** -0.24
24272 H 18.915893030691873 90.17477324277587 54.41508515986834 H 0.0 **** 0.06
24273 H 18.640399229417714 91.82981850465654 55.011238104827726 H 0.0 **** 0.06
24274 H 18.34237154703399 91.43801663211289 53.29997255158639 H 0.0 **** 0.06
24275 H 20.00807301176094 91.49056754087295 53.92346739273256 H 0.0 **** 0.06
24276 C 90.56524250214177 45.128265020708795 23.915051495423484 C 0.0 **** -0.24
24277 H 90.2085104963261 45.368478297423735 24.916260530391554 H 0.0 **** 0.06
24278 H 90.16646767567495 44.16111483115168 23.60930348518741 H 0.0 **** 0.06
24279 H 91.65477392948132 45.08806669568747 23.917309431113296 H 0.0 **** 0.06
24280 H 90.23166270527486 45.89671981688565 23.21708552786771 H 0.0 **** 0.06
24281 C 36.577588178623955 98.3071674214157 64.50328509842649 C 0.0 **** -0.24
24282 H 35.87036906543369 98.26470264886066 65.33098161741461 H 0.0 **** 0.06
24283 H 36.058256511594436 98.62561982859708 63.598212454253414 H 0.0 **** 0.06
24284 H 37.01245633563764 97.32086713579751 64.34624666735789 H 0.0 **** 0.06
24285 H 37.36787645527261 99.02013454773582 64.73779951879149 H 0.0 **** 0.06
24286 C 9.383015661284958 41.45030504011373 96.66019219081815 C 0.0 **** -0.24
24287 H 10.287490047718904 41.20320613373434 97.21685812631972 H 0.0 **** 0.06
24288 H 8.847120527340394 40.53445233663848 96.41240618559566 H 0.0 **** 0.06
24289 H 9.653786396073997 41.973376564121764 95.74288084234777 H 0.0 **** 0.06
24290 H 8.746509773058165 42.09148405492266 97.26909725931775 H 0.0 **** 0.06
24291 C 63.386087417880844 24.237339345049463 3.35612037317118 C 0.0 **** -0.24
24292 H 63.54334839770311 23.683569488338975 4.28182964057396 H 0.0 **** 0.06
24293 H 62.52458267515007 24.895660055964328 3.468401853571109 H 0.0 **** 0.06
24294 H 63.20441482130863 23.536702717498173 2.5411111139403033 H 0.0 **** 0.06
24295 H 64.27185657115183 24.83213887482208 3.1337080944864795 H 0.0 **** 0.06
24296 C 102.03271076987934 100.1495175490924 44.346626843594635 C 0.0 **** -0.24
24297 H 101.5423395498187 101.10036828474014 44.55742697278299 H 0.0 **** 0.06
24298 H 103.11402138960122 100.27556941791912 44.41614707518778 H 0.0 **** 0.06
24299 H 101.76923410136243 99.81921463791528 43.34218784208676 H 0.0 **** 0.06
24300 H 101.70632193473446 99.40438185453672 45.072389787016505 H 0.0 **** 0.06
24301 C 41.77871797045232 70.81328949388859 61.221136179166734 C 0.0 **** -0.24
24302 H 42.28482580097135 70.30804673779473 62.04325070345783 H 0.0 **** 0.06
24303 H 40.91468887130042 70.22465094126163 60.91067984031484 H 0.0 **** 0.06
24304 H 42.466108477391465 70.92008156962812 60.382660539803574 H 0.0 **** 0.06
24305 H 41.447833914588735 71.79862621163345 61.54891657541211 H 0.0 **** 0.06
24306 C 11.004571018127407 96.7298243847505 57.469449754090505 C 0.0 **** -0.24
24307 H 11.600123499577762 97.64147824298792 57.508961240089604 H 0.0 **** 0.06
24308 H 10.25193709181238 96.82117797822521 56.68547305674488 H 0.0 **** 0.06
24309 H 10.511728174717888 96.57774715855838 58.43037077871335 H 0.0 **** 0.06
24310 H 11.652675807721721 95.8807517885001 57.25449028719143 H 0.0 **** 0.06
24311 C 80.49580180059655 55.95277789599572 103.66192724274336 C 0.0 **** -0.24
24312 H 81.51874834459454 55.8238083989645 104.01497529258052 H 0.0 **** 0.06
24313 H 80.20932859631756 57.00070968924234 103.7499031541847 H 0.0 **** 0.06
24314 H 79.8239032003728 55.34002572283515 104.2645953483808 H 0.0 **** 0.06
24315 H 80.43030868562954 55.64342412644595 102.61875917939278 H 0.0 **** 0.06
24316 C 88.1400885327421 59.37549906334881 49.097468648467526 C 0.0 **** -0.24
24317 H 87.0777423469687 59.24532454703461 49.305280852512 H 0.0 **** 0.06
24318 H 88.43120567226995 58.72334139266408 48.27327574114696 H 0.0 **** 0.06
24319 H 88.718552412919 59.120167983520226 49.98537139657887 H 0.0 **** 0.06
24320 H 88.33238442053995 60.413384373677516 48.82509189863282 H 0.0 **** 0.06
24321 C 51.191876685449586 20.389074240924856 22.383305511531034 C 0.0 **** -0.24
24322 H 50.441263171462026 20.750411685126494 21.680087672136665 H 0.0 **** 0.06
24323 H 50.98426830736281 20.794398895055338 23.37396409308144 H 0.0 **** 0.06
24324 H 52.18041394610481 20.71290091653094 22.057627638072972 H 0.0 **** 0.06
24325 H 51.16070844323559 19.30047438984502 22.420703114845878 H 0.0 **** 0.06
24326 C 29.590998385786463 61.82458560385135 83.02627127161315 C 0.0 **** -0.24
24327 H 28.657251129448753 61.79792494783935 82.4653996863899 H 0.0 **** 0.06
24328 H 29.548788200908348 62.625968036605045 83.76438050213835 H 0.0 **** 0.06
24329 H 30.420956409628502 62.00357732267659 82.34166743200348 H 0.0 **** 0.06
24330 H 29.737701850614712 60.87086946673129 83.53292728548479 H 0.0 **** 0.06
24331 C 44.15796850103126 100.15055402968548 69.06419796468049 C 0.0 **** -0.24
24332 H 44.45509055404032 101.19062697705438 69.1989290333587 H 0.0 **** 0.06
24333 H 44.408116869381296 99.83028158992215 68.05288641225445 H 0.0 **** 0.06
24334 H 43.0833503071658 100.05764848153478 69.21979032543334 H 0.0 **** 0.06
24335 H 44.685863816458905 99.52658946701122 69.78484935946443 H 0.0 **** 0.06
24336 C 88.35567183539871 96.37425307501422 13.894094421842283 C 0.0 **** -0.24
24337 H 88.09732521016639 96.72984200564741 12.896461594962716 H 0.0 **** 0.06
24338 H 89.15044194120088 95.63295286928653 13.82169197672306 H 0.0 **** 0.06
24339 H 87.47767765439306 95.92252789705543 14.3561878165537 H 0.0 **** 0.06
24340 H 88.69405683649359 97.21363204283699 14.502316657386359 H 0.0 **** 0.06
24341 C 59.45901790700725 66.53916864401232 93.20027110006384 C 0.0 **** -0.24
24342 H 60.147141177175854 67.38012084814389 93.29491535475722 H 0.0 **** 0.06
24343 H 59.56677078522222 66.09095253369662 92.21272903684786 H 0.0 **** 0.06
24344 H 58.43580489135263 66.89210411030905 93.32955139594685 H 0.0 **** 0.06
24345 H 59.68680745174885 65.79705849113236 93.96422336672924 H 0.0 **** 0.06
24346 C 32.82845125374294 44.604090716382586 46.79294262750349 C 0.0 **** -0.24
24347 H 31.788703641535506 44.81866451129008 46.54558113893464 H 0.0 **** 0.06
24348 H 33.096047207671106 45.11839604330561 47.716806911005904 H 0.0 **** 0.06
24349 H 33.47243212842204 44.950309634442476 45.98451093412902 H 0.0 **** 0.06
24350 H 32.956994443830006 43.53030450342044 46.924496671819526 H 0.0 **** 0.06
24351 C 69.18357659932789 91.3286629911536 67.08348120641787 C 0.0 **** -0.24
24352 H 68.69334206997708 92.30162062788261 67.07066690414041 H 0.0 **** 0.06
24353 H 70.08562387546323 91.38462550095997 67.69214825766721 H 0.0 **** 0.06
24354 H 69.44935182335553 91.0424684508825 66.06554557393181 H 0.0 **** 0.06
24355 H 68.50603751371285 90.58597867981516 67.50456611647817 H 0.0 **** 0.06
24356 C 92.67840598518539 61.55321842521647 72.6888009954113 C 0.0 **** -0.24
24357 H 92.2241340003514 60.67969198478295 73.15452854082591 H 0.0 **** 0.06
24358 H 93.60144128062586 61.25878743294902 72.18738895595817 H 0.0 **** 0.06
24359 H 92.90239946592821 62.297856956056194 73.45334277715428 H 0.0 **** 0.06
24360 H 91.98795857510977 61.97734596717902 71.96005831838684 H 0.0 **** 0.06
24361 C 33.54974589401994 38.334417077831574 51.53906680330488 C 0.0 **** -0.24
24362 H 34.0154394341078 38.99707565076176 52.269212607668806 H 0.0 **** 0.06
24363 H 34.27568588323036 37.59065571559714 51.20953546080494 H 0.0 **** 0.06
24364 H 33.21320164563213 38.91825950614711 50.68270784434185 H 0.0 **** 0.06
24365 H 32.69609954409539 37.833594139219514 51.995305755697814 H 0.0 **** 0.06
24366 C 58.534070880528986 88.43708701168754 40.53308511765357 C 0.0 **** -0.24
24367 H 58.0423731097473 87.68776158846134 41.15291766716349 H 0.0 **** 0.06
24368 H 58.025387655537344 89.39411881585968 40.64803814963955 H 0.0 **** 0.06
24369 H 58.495409407238526 88.12704592338272 39.48902788662579 H 0.0 **** 0.06
24370 H 59.57392735779791 88.53874675835763 40.844566313518555 H 0.0 **** 0.06
24371 C 19.140600301259617 94.9929866088815 46.55972692962382 C 0.0 **** -0.24
24372 H 19.345336665524467 95.67091703144624 47.388924804314144 H 0.0 **** 0.06
24373 H 18.36635192686688 95.42192228691371 45.92314671256196 H 0.0 **** 0.06
24374 H 18.800849622401 94.03428644775724 46.95078211113929 H 0.0 **** 0.06
24375 H 20.0503978578306 94.8467066109578 45.97712990244298 H 0.0 **** 0.06
24376 C 105.93998082203296 75.31899277227313 48.49056673861476 C 0.0 **** -0.24
24377 H 105.62070988404469 75.35426790752217 49.532381242798216 H 0.0 **** 0.06
24378 H 105.41993077487535 74.50957393646797 47.9778701218649 H 0.0 **** 0.06
24379 H 107.0156126022465 75.14560284816014 48.44587939962266 H 0.0 **** 0.06
24380 H 105.70453214121358 76.26700192694466 48.00631133664993 H 0.0 **** 0.06
24381 C 58.867204780744714 39.92774409397192 66.88703165673604 C 0.0 **** -0.24
24382 H 57.891522722941374 40.163233264498594 66.45978095146177 H 0.0 **** 0.06
24383 H 59.43073677545584 40.84845685359902 67.0342334207694 H 0.0 **** 0.06
24384 H 59.411772049715836 39.27255212401754 66.20778896239574 H 0.0 **** 0.06
24385 H 58.73195654096983 39.426535906573015 67.84535047810641 H 0.0 **** 0.06
24386 C 58.00426286298012 29.7415765754358 84.55689480396838 C 0.0 **** -0.24
24387 H 57.97329698926866 30.292020072137603 83.61700292511624 H 0.0 **** 0.06
24388 H 57.2006532330956 30.088408097257712 85.20733328204645 H 0.0 **** 0.06
24389 H 58.9645247885918 29.90989183877977 85.04453270158949 H 0.0 **** 0.06
24390 H 57.87860060426211 28.676980633665778 84.3586066251398 H 0.0 **** 0.06
24391 C 2.163642063683753 1.5184254490451679 57.999963051980394 C 0.0 **** -0.24
24392 H 1.3075165886130407 1.310237423856222 58.64071695723415 H 0.0 **** 0.06
24393 H 2.0819962135715713 2.5311033286262585 57.602503281402186 H 0.0 **** 0.06
24394 H 2.182801815484666 0.8051072826867198 57.175759907688885 H 0.0 **** 0.06
24395 H 3.082577270722382 1.4283385934437547 58.58002442255429 H 0.0 **** 0.06
24396 C 1.40509068695701 18.27061842972212 60.70253538638313 C 0.0 **** -0.24
24397 H 0.7434564610312009 19.11847432635065 60.878910610393746 H 0.0 **** 0.06
24398 H 1.0215123588508561 17.67703716746651 59.87375460848406 H 0.0 **** 0.06
24399 H 1.4521161662127469 17.654998685831814 61.60120088286075 H 0.0 **** 0.06
24400 H 2.403703842504754 18.633904707897514 60.459445769343134 H 0.0 **** 0.06
24401 C 14.419315504302062 16.785494362389812 16.55090946110144 C 0.0 **** -0.24
24402 H 13.4929269634344 17.333536085838574 16.720680525008788 H 0.0 **** 0.06
24403 H 14.42173820901445 16.37960530690208 15.538577015745176 H 0.0 **** 0.06
24404 H 14.495377243798316 15.970227954995792 17.270799751999277 H 0.0 **** 0.06
24405 H 15.267198986690005 17.459582356158762 16.674605488546575 H 0.0 **** 0.06
24406 C 104.55068035371315 10.375458728745116 60.885994365205136 C 0.0 **** -0.24
24407 H 103.62564645001723 9.881925264601378 61.18555695534786 H 0.0 **** 0.06
24408 H 105.39981290401535 9.861766925227869 61.340049964236215 H 0.0 **** 0.06
24409 H 104.53408042229572 11.41314699882524 61.2191237712336 H 0.0 **** 0.06
24410 H 104.64440615808934 10.342689028160862 59.800723289505896 H 0.0 **** 0.06
24411 C 30.919501050886964 3.758606320400119 62.79410414207567 C 0.0 **** -0.24
24412 H 31.153130936967813 4.699081904118771 63.29367544347309 H 0.0 **** 0.06
24413 H 30.129974609844083 3.923384180094615 62.060507530070936 H 0.0 **** 0.06
24414 H 30.58446503369231 3.0291226841468415 63.53138576617593 H 0.0 **** 0.06
24415 H 31.810433623043536 3.3828365132403633 62.29084782858254 H 0.0 **** 0.06
24416 C 36.54184057299535 99.19824218595932 54.61488173354857 C 0.0 **** -0.24
24417 H 37.25613529412804 99.97912479825817 54.87715284455831 H 0.0 **** 0.06
24418 H 35.639073242141876 99.31642223039248 55.215271932960235 H 0.0 **** 0.06
24419 H 36.98414888712983 98.22169764936518 54.809565548950985 H 0.0 **** 0.06
24420 H 36.28820672767701 99.27946018547323 53.557572767458964 H 0.0 **** 0.06
24421 C 9.323376528480253 87.37963280872015 49.856495590224974 C 0.0 **** -0.24
24422 H 9.33618899465256 86.2906078432996 49.80320194084607 H 0.0 **** 0.06
24423 H 9.968854563518391 87.78827832488025 49.079239750819696 H 0.0 **** 0.06
24424 H 9.683635019988628 87.69854281695177 50.8344173254568 H 0.0 **** 0.06
24425 H 8.304629462506284 87.73842964510686 49.710471811739474 H 0.0 **** 0.06
24426 C 19.74470531139241 54.322640338140516 85.59119261320791 C 0.0 **** -0.24
24427 H 19.20483468166148 53.809051934673136 84.79455000591099 H 0.0 **** 0.06
24428 H 19.18085333639476 55.2029763482297 85.9015927108266 H 0.0 **** 0.06
24429 H 20.72567893146109 54.628795175974254 85.22677429141015 H 0.0 **** 0.06
24430 H 19.865611231752865 53.64956361955535 86.43971496136635 H 0.0 **** 0.06
24431 C 87.89784159648465 89.7388237722198 36.97959654741976 C 0.0 **** -0.24
24432 H 88.52485835213793 89.12230605172954 36.33441931598156 H 0.0 **** 0.06
24433 H 87.44109255710998 89.11326521047468 37.74671421923438 H 0.0 **** 0.06
24434 H 87.1176955850886 90.21247148109867 36.383483499338126 H 0.0 **** 0.06
24435 H 88.50980365993155 90.50656856520726 37.45267799508022 H 0.0 **** 0.06
24436 C 17.43503713257431 21.499281226952405 92.36489003232987 C 0.0 **** -0.24
24437 H 18.246286327920544 22.18827350526439 92.6015102427975 H 0.0 **** 0.06
24438 H 16.806524061196086 21.933200187057196 91.58743627412576 H 0.0 **** 0.06
24439 H 16.836959769934424 21.322067718717165 93.25910062062016 H 0.0 **** 0.06
24440 H 17.85099519225639 20.555685872465773 92.01260835681421 H 0.0 **** 0.06
24441 C 6.309544014781238 60.924855374877154 18.028294353060996 C 0.0 **** -0.24
24442 H 5.254024482639906 61.19722001421553 18.030470880086497 H 0.0 **** 0.06
24443 H 6.407257629035939 59.8516128210772 18.197259623138383 H 0.0 **** 0.06
24444 H 6.826423391029948 61.46617193311562 18.81970873807002 H 0.0 **** 0.06
24445 H 6.748863979444863 61.18202973001428 17.06408843073603 H 0.0 **** 0.06
24446 C 41.39747500316028 84.27188077830789 60.710768156585374 C 0.0 **** -0.24
24447 H 40.88291494583285 84.60623586926772 59.80938290490702 H 0.0 **** 0.06
24448 H 41.063363409954604 83.2665168487471 60.96693512434676 H 0.0 **** 0.06
24449 H 41.17124323633368 84.9513254715045 61.53146037884207 H 0.0 **** 0.06
24450 H 42.473156959622656 84.2634443297303 60.53163436562744 H 0.0 **** 0.06
24451 C 26.548827783554415 61.42293616211988 29.367980789185708 C 0.0 **** -0.24
24452 H 25.944547150220444 62.328014810111824 29.431236418046467 H 0.0 **** 0.06
24453 H 26.090042558395048 60.72746359434876 28.66526197894342 H 0.0 **** 0.06
24454 H 26.61067829899791 60.95805933494803 30.351781451222536 H 0.0 **** 0.06
24455 H 27.55084395904874 61.67874649590283 29.023383386434915 H 0.0 **** 0.06
24456 C 87.5361096150239 5.584693867567694 57.15916444815315 C 0.0 **** -0.24
24457 H 87.22388320550213 4.548682929746235 57.29028541637558 H 0.0 **** 0.06
24458 H 88.16538470176846 5.88327879516504 57.99824708055968 H 0.0 **** 0.06
24459 H 86.65575782137256 6.226437722352159 57.11786950194261 H 0.0 **** 0.06
24460 H 88.0998692224988 5.679637904022627 56.229758961432594 H 0.0 **** 0.06
24461 C 85.20020750036514 61.6838959311562 39.35857407465285 C 0.0 **** -0.24
24462 H 85.03167990746067 61.52467514629734 38.29367789030215 H 0.0 **** 0.06
24463 H 84.96528959622782 62.71872124143988 39.61294975156005 H 0.0 **** 0.06
24464 H 86.2447361647055 61.479698281326364 39.59601868534533 H 0.0 **** 0.06
24465 H 84.56022426200019 61.01427425135171 39.93291626861205 H 0.0 **** 0.06
24466 C 55.25213674801353 4.674924705735805 64.60698325134928 C 0.0 **** -0.24
24467 H 55.63759163420245 3.8473994558527806 65.20386034874002 H 0.0 **** 0.06
24468 H 54.19079881151563 4.520472733033259 64.41561181841166 H 0.0 **** 0.06
24469 H 55.79023913676636 4.721244467547194 63.661030327789376 H 0.0 **** 0.06
24470 H 55.39208808624554 5.609740821540527 65.15083360966526 H 0.0 **** 0.06
24471 C 1.689546637991299 56.91905373995445 24.11155745439973 C 0.0 **** -0.24
24472 H 1.9814643604574655 57.63607023501572 23.344187204638374 H 0.0 **** 0.06
24473 H 2.5106333974921853 56.78787096054117 24.816382483868708 H 0.0 **** 0.06
24474 H 1.4551760522322184 55.962953189837606 23.64407178535987 H 0.0 **** 0.06
24475 H 0.8114083085219619 57.2905658844935 24.639798414494066 H 0.0 **** 0.06
24476 C 85.22193705926976 33.179100412997656 62.258673562063564 C 0.0 **** -0.24
24477 H 85.33183426073465 33.58942076052173 63.26284115592941 H 0.0 **** 0.06
24478 H 84.61257420430283 32.27533606203724 62.30013071845414 H 0.0 **** 0.06
24479 H 86.20530220427932 32.93623302424194 61.85609049164353 H 0.0 **** 0.06
24480 H 84.73754213414227 33.91470517462756 61.61769475619744 H 0.0 **** 0.06
24481 C 64.19405485450909 62.08717581308707 35.31654511355095 C 0.0 **** -0.24
24482 H 64.32949807075369 62.894626703096264 36.035670883670996 H 0.0 **** 0.06
24483 H 64.87840721059354 61.27215012504803 35.55191436234571 H 0.0 **** 0.06
24484 H 64.39983154366905 62.45744716571403 34.312397828055275 H 0.0 **** 0.06
24485 H 63.16658272620424 61.72558981571166 35.36727322632284 H 0.0 **** 0.06
24486 C 69.98190378242904 1.643608315561977 25.14759448287373 C 0.0 **** -0.24
24487 H 70.78726661646405 1.3704366609498777 25.83027501898013 H 0.0 **** 0.06
24488 H 70.40727947648472 2.0170012980175045 24.215648163001276 H 0.0 **** 0.06
24489 H 69.36704697804635 2.4196385571295025 25.603542817914104 H 0.0 **** 0.06
24490 H 69.36796356004831 0.7664737186857167 24.943021730054994 H 0.0 **** 0.06
24491 C 70.27599521293823 68.548048097194 93.76385898672564 C 0.0 **** -0.24
24492 H 69.62627512879388 67.6798655305045 93.87034612038639 H 0.0 **** 0.06
24493 H 69.73278023530375 69.44694434119639 94.05832768867535 H 0.0 **** 0.06
24494 H 70.59400200233262 68.63865770619314 92.72541290252528 H 0.0 **** 0.06
24495 H 71.15147095986845 68.42710174691132 94.40259754735492 H 0.0 **** 0.06
24496 C 99.45677060959115 47.30670484534667 41.78838099657382 C 0.0 **** -0.24
24497 H 98.4822163359027 47.60673755092586 41.404919145314615 H 0.0 **** 0.06
24498 H 100.14206124057337 48.15320041418221 41.74312930078223 H 0.0 **** 0.06
24499 H 99.84913844880333 46.48881760436612 41.18343828740429 H 0.0 **** 0.06
24500 H 99.35397978678502 46.976395498866395 42.8223817330521 H 0.0 **** 0.06
24501 C 89.64591783823455 53.98281659629026 94.33898665669594 C 0.0 **** -0.24
24502 H 89.93642796703995 54.25857735049685 95.35276058723113 H 0.0 **** 0.06
24503 H 88.9513511721637 54.72587381467796 93.94583926603104 H 0.0 **** 0.06
24504 H 89.16479822822164 53.00555198234015 94.35196500176748 H 0.0 **** 0.06
24505 H 90.53229510383457 53.94393272033122 93.7060387279183 H 0.0 **** 0.06
24506 C 98.80598431237883 52.30376029817248 33.14546411114381 C 0.0 **** -0.24
24507 H 98.96750193002094 51.877771281105396 34.135850469291086 H 0.0 **** 0.06
24508 H 97.76391615583094 52.60842573345312 33.04582645585978 H 0.0 **** 0.06
24509 H 99.04175757851868 51.55753492963203 32.38666876415127 H 0.0 **** 0.06
24510 H 99.4527630099509 53.17230237900756 33.013601423789225 H 0.0 **** 0.06
24511 C 12.841398705060712 77.34525931330757 99.638124752444 C 0.0 **** -0.24
24512 H 11.803465113922414 77.10042568171399 99.4085291379371 H 0.0 **** 0.06
24513 H 13.458227459514461 77.17021048357077 98.75683939146529 H 0.0 **** 0.06
24514 H 13.18989257879349 76.7168816640854 100.4571853204765 H 0.0 **** 0.06
24515 H 12.910732231333384 78.39319552082858 99.92955272879439 H 0.0 **** 0.06
24516 C 25.585550614005854 104.9491204564286 68.74671852021828 C 0.0 **** -0.24
24517 H 26.11065352163861 105.57577053026017 69.46792331061039 H 0.0 **** 0.06
24518 H 25.611029091779926 105.42555697347635 67.76568646670626 H 0.0 **** 0.06
24519 H 24.550170566761835 104.82171406759056 69.06217130766112 H 0.0 **** 0.06
24520 H 26.07069765805778 103.9744666778449 68.69018460346115 H 0.0 **** 0.06
24521 C 41.15627744092356 24.138800345578016 97.43098700078137 C 0.0 **** -0.24
24522 H 40.12857297567197 24.195718346203535 97.07206139974633 H 0.0 **** 0.06
24523 H 41.222580138219456 24.597166108744016 98.41794622431411 H 0.0 **** 0.06
24524 H 41.812008304700754 24.668782438166726 96.73942082874636 H 0.0 **** 0.06
24525 H 41.46224596040929 23.094146307834073 97.4926387825826 H 0.0 **** 0.06
24526 C 55.913596515334774 55.53907819086288 10.164411320840443 C 0.0 **** -0.24
24527 H 56.655832491288976 54.76282310387677 9.97938298338454 H 0.0 **** 0.06
24528 H 54.93886783362336 55.20086949536068 9.80983173944081 H 0.0 **** 0.06
24529 H 56.19883264304764 56.44727926502111 9.634470929824602 H 0.0 **** 0.06
24530 H 55.860468412624954 55.74303352877968 11.23323276154774 H 0.0 **** 0.06
24531 C 13.659851387219035 8.214731459694917 18.160319050776394 C 0.0 **** -0.24
24532 H 13.050934420015963 7.810323466299792 17.35226832777549 H 0.0 **** 0.06
24533 H 13.194735606430697 7.981685153194064 19.11765984310263 H 0.0 **** 0.06
24534 H 13.73934645120815 9.29653028761851 18.04810234728194 H 0.0 **** 0.06
24535 H 14.655106598959918 7.77157006564596 18.12148910355738 H 0.0 **** 0.06
24536 C 34.33047839538591 26.345290862006387 77.59543694582524 C 0.0 **** -0.24
24537 H 34.005075235174786 26.477801774126682 78.62695297561672 H 0.0 **** 0.06
24538 H 35.236228506437186 25.739639464289187 77.57554210808362 H 0.0 **** 0.06
24539 H 34.533826357332146 27.320313123302984 77.1513593003086 H 0.0 **** 0.06
24540 H 33.545396784177285 25.845171659004986 77.0288786308673 H 0.0 **** 0.06
24541 C 29.871506054967995 86.2441427945165 58.009971426480895 C 0.0 **** -0.24
24542 H 30.09907051057617 85.58123331415322 58.84558689452934 H 0.0 **** 0.06
24543 H 30.240848384483357 87.24624732378953 58.231133198690884 H 0.0 **** 0.06
24544 H 28.79299245370798 86.2792104471348 57.857277739444484 H 0.0 **** 0.06
24545 H 30.354272464834494 85.86905869350761 57.10761439447572 H 0.0 **** 0.06
24546 C 69.4459392789839 103.79630257925956 7.463223240444478 C 0.0 **** -0.24
24547 H 70.0639595731202 104.42938503924768 6.826369856695663 H 0.0 **** 0.06
24548 H 68.5031763075639 104.30126768234618 7.672318683949015 H 0.0 **** 0.06
24549 H 69.97008338747793 103.60232741810401 8.399073816524577 H 0.0 **** 0.06
24550 H 69.24872191340944 102.85207319144479 6.954677346440292 H 0.0 **** 0.06
24551 C 101.9342620613072 99.54807854878601 13.525330336101433 C 0.0 **** -0.24
24552 H 102.00112201420009 98.53998314428105 13.933553407202112 H 0.0 **** 0.06
24553 H 100.90581116020864 99.90223960059564 13.601056396901697 H 0.0 **** 0.06
24554 H 102.23925748477956 99.53821469197743 12.479745273385277 H 0.0 **** 0.06
24555 H 102.58930432081716 100.21183455951038 14.089720544841725 H 0.0 **** 0.06
24556 C 103.10629179157075 10.474790802488243 64.50188012195369 C 0.0 **** -0.24
24557 H 102.57313979658147 9.58806565514115 64.84258982552385 H 0.0 **** 0.06
24558 H 104.17666725336585 10.339488501850724 64.66276967435513 H 0.0 **** 0.06
24559 H 102.76199131744255 11.343383335128365 65.06366382212988 H 0.0 **** 0.06
24560 H 102.9151272431244 10.62852936220878 63.44017524514402 H 0.0 **** 0.06
24561 C 49.80080825777219 98.59449579810328 51.975937473399426 C 0.0 **** -0.24
24562 H 48.92984690692833 98.69361938775808 51.328616443831265 H 0.0 **** 0.06
24563 H 50.41770442328141 99.49061302731258 51.89387748371723 H 0.0 **** 0.06
24564 H 50.38164333410907 97.72379996449848 51.67192418816296 H 0.0 **** 0.06
24565 H 49.47393849474577 98.471060208849 53.00846036628462 H 0.0 **** 0.06
24566 C 43.183629791068746 78.99744373228393 32.57787848858348 C 0.0 **** -0.24
24567 H 44.014412842323196 78.97740686612286 31.87262552152785 H 0.0 **** 0.06
24568 H 43.12560527778069 79.98183856025004 33.04248659557746 H 0.0 **** 0.06
24569 H 43.341628893150286 78.24120129225795 33.34625230667882 H 0.0 **** 0.06
24570 H 42.25347406480027 78.78998612609915 32.04809890208196 H 0.0 **** 0.06
24571 C 27.698553573106224 1.382184407315708 73.33699808478258 C 0.0 **** -0.24
24572 H 28.012252244557757 1.2430102058515429 74.37154551757828 H 0.0 **** 0.06
24573 H 28.31231126745851 0.759602030402192 72.68562384015871 H 0.0 **** 0.06
24574 H 27.81760183316976 2.428508583102345 73.05769021431354 H 0.0 **** 0.06
24575 H 26.65165939758903 1.0956348213364233 73.23409203899996 H 0.0 **** 0.06
24576 C 61.38607615978697 20.736394195093084 3.9526963916125197 C 0.0 **** -0.24
24577 H 62.3501891639076 20.68253651701312 4.458977145915469 H 0.0 **** 0.06
24578 H 60.9069951731401 21.688330574055016 4.184289359431929 H 0.0 **** 0.06
24579 H 60.75158550216628 19.917935993458855 4.291931499760437 H 0.0 **** 0.06
24580 H 61.536446144229956 20.6574741716137 2.876411501490736 H 0.0 **** 0.06
24581 C 92.05153356197025 38.84001627377637 88.2211124294835 C 0.0 **** -0.24
24582 H 92.86980374714261 38.68150477737677 88.92406886538991 H 0.0 **** 0.06
24583 H 92.08619404530799 38.07497228334151 87.44546105672016 H 0.0 **** 0.06
24584 H 92.14992807679022 39.825823910095096 87.76545732116381 H 0.0 **** 0.06
24585 H 91.10119449730234 38.7781703826536 88.7514278637734 H 0.0 **** 0.06
24586 C 96.62807382520437 0.5957778923400738 90.80259176600433 C 0.0 **** -0.24
24587 H 97.35301182057752 1.0231973714027847 91.49643992677491 H 0.0 **** 0.06
24588 H 96.92319653704448 -0.4224549317774331 90.55123512528635 H 0.0 **** 0.06
24589 H 96.59513616716069 1.2000687000702133 89.89575635608801 H 0.0 **** 0.06
24590 H 95.64226140699868 0.5854395607786014 91.26759037328927 H 0.0 **** 0.06
24591 C 106.86608869621895 19.189927629683353 79.86899432149835 C 0.0 **** -0.24
24592 H 106.71039910592204 18.51377060163199 80.71044615913911 H 0.0 **** 0.06
24593 H 106.18699307570472 20.038090237597316 79.95520934648026 H 0.0 **** 0.06
24594 H 106.66915655976975 18.66085699781877 78.93655788456091 H 0.0 **** 0.06
24595 H 107.89560030923549 19.54601952180144 79.87524310663989 H 0.0 **** 0.06
24596 C 1.982538353491023 31.800194943778934 15.690951602204308 C 0.0 **** -0.24
24597 H 1.0567155680082294 31.224813940058482 15.699471346982136 H 0.0 **** 0.06
24598 H 2.3425986963153917 31.892345249813445 14.666673544229212 H 0.0 **** 0.06
24599 H 2.7319260923089814 31.289996105317783 16.295703490765476 H 0.0 **** 0.06
24600 H 1.796786663039299 32.79294890042274 16.101808795845926 H 0.0 **** 0.06
24601 C 79.26041781726892 31.25131290056541 100.84602514168859 C 0.0 **** -0.24
24602 H 79.06743205678737 30.286872749055988 100.375460129493 H 0.0 **** 0.06
24603 H 80.33432279910184 31.382358117333638 100.9771240613874 H 0.0 **** 0.06
24604 H 78.76768638116857 31.28504984378617 101.8178591145248 H 0.0 **** 0.06
24605 H 78.87120034019776 32.048165686244914 100.21262236259767 H 0.0 **** 0.06
24606 C 30.800018395388577 64.2519014621056 34.792607127675154 C 0.0 **** -0.24
24607 H 31.028274050331476 65.29754321978898 34.58357022492609 H 0.0 **** 0.06
24608 H 30.60226611063416 63.7293748576097 33.85662652252691 H 0.0 **** 0.06
24609 H 29.92152087850741 64.19337483026362 35.4344952893359 H 0.0 **** 0.06
24610 H 31.649370044724748 63.78907450053846 35.29596954892375 H 0.0 **** 0.06
24611 C 40.127265142482656 36.51137191001487 58.582058796904676 C 0.0 **** -0.24
24612 H 39.89630452955842 37.13525152480477 59.44561605492379 H 0.0 **** 0.06
24613 H 40.41885859197569 37.143798309329156 57.74323471489197 H 0.0 **** 0.06
24614 H 39.24606941859375 35.92957271286997 58.30877401806737 H 0.0 **** 0.06
24615 H 40.94523702585724 35.83545670830381 58.83005943206001 H 0.0 **** 0.06
24616 C 87.05101488996024 26.575001153505582 89.6536787424473 C 0.0 **** -0.24
24617 H 87.48051482216152 27.356861282435034 89.02649352106425 H 0.0 **** 0.06
24618 H 86.16611091421646 26.164427870236096 89.16662507567531 H 0.0 **** 0.06
24619 H 86.77257984117239 26.996242763318236 90.61923148485286 H 0.0 **** 0.06
24620 H 87.78517584475782 25.783144919374962 89.8002566298495 H 0.0 **** 0.06
24621 C 67.5950771256798 11.677921655741187 62.92214408669942 C 0.0 **** -0.24
24622 H 67.34664865283753 10.652188236914512 62.64898667576719 H 0.0 **** 0.06
24623 H 67.44173717481388 12.329620437601008 62.06264701757321 H 0.0 **** 0.06
24624 H 68.63815617228215 11.727252878964293 63.236292599105695 H 0.0 **** 0.06
24625 H 66.95357213978384 12.000120648183767 63.742290332194855 H 0.0 **** 0.06
24626 C 75.44085617194388 65.37600550752595 49.60209889524714 C 0.0 **** -0.24
24627 H 74.94794411611582 65.975439817065 50.36777306956316 H 0.0 **** 0.06
24628 H 76.4265521693868 65.79177981060104 49.39411856152498 H 0.0 **** 0.06
24629 H 74.84158610996403 65.38735465901661 48.691011987486604 H 0.0 **** 0.06
24630 H 75.54517294075659 64.34998239390225 49.95540089679605 H 0.0 **** 0.06
24631 C 72.45271129210508 95.67499200373325 8.95962634756387 C 0.0 **** -0.24
24632 H 72.23472116203325 94.81221187222219 8.33117555561438 H 0.0 **** 0.06
24633 H 72.31368905485814 95.40548108432755 10.007244337081033 H 0.0 **** 0.06
24634 H 71.7798100013006 96.49279191143121 8.70203196885214 H 0.0 **** 0.06
24635 H 73.48459168640721 95.98976405112397 8.799079819060694 H 0.0 **** 0.06
24636 C 24.021456577929968 25.65593567282471 91.40970507263498 C 0.0 **** -0.24
24637 H 23.111605734571043 25.110146121049297 91.15829116471862 H 0.0 **** 0.06
24638 H 24.59768689089762 25.084512837031724 92.13808637564067 H 0.0 **** 0.06
24639 H 23.758439058576784 26.62490640053855 91.83244158645468 H 0.0 **** 0.06
24640 H 24.617576098218223 25.801362429524403 90.50910235236418 H 0.0 **** 0.06
24641 C 52.01554985820968 81.14875607489613 59.71205849146433 C 0.0 **** -0.24
24642 H 51.57629205642763 80.15185056568724 59.754233330007075 H 0.0 **** 0.06
24643 H 52.98144561895459 81.14166272782107 60.216710600898196 H 0.0 **** 0.06
24644 H 51.35252226745183 81.85887229261047 60.2069626343571 H 0.0 **** 0.06
24645 H 52.15118155561737 81.44305608220135 58.67082878353364 H 0.0 **** 0.06
24646 C 72.44329704191313 57.69324679921553 56.2180152296782 C 0.0 **** -0.24
24647 H 73.27568743909708 57.50408593706234 55.540245284394786 H 0.0 **** 0.06
24648 H 71.67687179858362 56.931185088189125 56.07284273319874 H 0.0 **** 0.06
24649 H 72.02218154644078 58.67631287738848 56.010681030465946 H 0.0 **** 0.06
24650 H 72.79752319662603 57.6596351028752 57.248152006013584 H 0.0 **** 0.06
24651 C 64.07048103199983 86.83361951801784 58.040504293335616 C 0.0 **** -0.24
24652 H 64.09857039708031 86.59305363560202 56.97705151127321 H 0.0 **** 0.06
24653 H 63.11627801754847 86.51140720324936 58.45992727447251 H 0.0 **** 0.06
24654 H 64.18046377769093 87.90946655144961 58.17219183069954 H 0.0 **** 0.06
24655 H 64.88425348872961 86.3188593283046 58.55095510136887 H 0.0 **** 0.06
24656 C 94.90879045597134 78.17332962191287 106.46315613089247 C 0.0 **** -0.24
24657 H 94.86966714792973 78.77842784453026 105.55703514343918 H 0.0 **** 0.06
24658 H 94.56940408910603 77.16208909388374 106.23869633725731 H 0.0 **** 0.06
24659 H 94.26208288046038 78.61394716543322 107.22226167231582 H 0.0 **** 0.06
24660 H 95.93297064121745 78.14086810711342 106.83369879854855 H 0.0 **** 0.06
24661 C 80.97090272378092 20.587664168368597 95.65658532969145 C 0.0 **** -0.24
24662 H 80.10298863134966 20.75820335784859 95.0185694356318 H 0.0 **** 0.06
24663 H 81.6454934464459 21.441945784791358 95.58612921764768 H 0.0 **** 0.06
24664 H 81.48944967611205 19.68715298293603 95.32927612266866 H 0.0 **** 0.06
24665 H 80.64417930777398 20.465227138619124 96.68846207478111 H 0.0 **** 0.06
24666 C 7.290554380770544 15.278560888385414 89.35406553845257 C 0.0 **** -0.24
24667 H 6.767578458820907 14.858127483913762 88.49560202469559 H 0.0 **** 0.06
24668 H 7.525034365355481 16.32515563008873 89.15917248837206 H 0.0 **** 0.06
24669 H 8.214377408002377 14.72430949455969 89.52413664575067 H 0.0 **** 0.06
24670 H 6.656084322481547 15.20635608220617 90.23777360458371 H 0.0 **** 0.06
24671 C 86.93541102358994 70.15128473466896 99.00392190127691 C 0.0 **** -0.24
24672 H 86.38738032753986 69.35892808388778 98.49339762799015 H 0.0 **** 0.06
24673 H 86.40170411677482 70.43569464178843 99.9102135780031 H 0.0 **** 0.06
24674 H 87.02095809527738 71.0156154629026 98.34502978759913 H 0.0 **** 0.06
24675 H 87.9318027126275 69.79293783582709 99.26559513661934 H 0.0 **** 0.06
24676 C 5.433958339216787 66.5719268775884 85.5121582916687 C 0.0 **** -0.24
24677 H 5.152259532344317 67.35202779554837 84.80432138527368 H 0.0 **** 0.06
24678 H 4.542930857382288 66.20643728578278 86.02325037823914 H 0.0 **** 0.06
24679 H 6.131229670143469 66.98030059710604 86.24369182017045 H 0.0 **** 0.06
24680 H 5.909626441587832 65.75012984980273 84.9761272782664 H 0.0 **** 0.06
24681 C 32.2305498029037 87.92092673268874 30.470305747443476 C 0.0 **** -0.24
24682 H 32.95424489684263 88.36504496778608 29.788180372470904 H 0.0 **** 0.06
24683 H 31.772886265340816 87.05154859842887 29.998434530169888 H 0.0 **** 0.06
24684 H 31.459777624135853 88.6532233567739 30.709599682528022 H 0.0 **** 0.06
24685 H 32.73578669248777 87.61363021388354 31.386306987720914 H 0.0 **** 0.06
24686 C 105.24089925868614 71.72248595221663 2.4046401003661195 C 0.0 **** -0.24
24687 H 106.02105678998039 71.9983703878772 3.1136349387850464 H 0.0 **** 0.06
24688 H 104.3546209442277 72.33163639262588 2.5846574245625664 H 0.0 **** 0.06
24689 H 104.99002302743457 70.66985481524365 2.5317796646938584 H 0.0 **** 0.06
24690 H 105.59725267036134 71.89080020606883 1.3882232174589877 H 0.0 **** 0.06
24691 C 60.61573372298659 100.54534093782345 15.125425491245878 C 0.0 **** -0.24
24692 H 60.07403973745784 100.26324451875257 14.222434374164521 H 0.0 **** 0.06
24693 H 60.07816555716934 100.18064881771102 16.00103548328184 H 0.0 **** 0.06
24694 H 60.69651141307327 101.63141228146577 15.17478871096597 H 0.0 **** 0.06
24695 H 61.61343831438185 100.10792213587493 15.102058631636183 H 0.0 **** 0.06
24696 C 8.25968715040419 66.74458022153978 58.854800801594095 C 0.0 **** -0.24
24697 H 8.993932035227687 67.10801038767173 58.13657825820635 H 0.0 **** 0.06
24698 H 7.769507069532324 65.85683202444457 58.454291918585454 H 0.0 **** 0.06
24699 H 7.515691484048062 67.52008158114354 59.037379016409844 H 0.0 **** 0.06
24700 H 8.758994510570943 66.49395843918792 59.790409994082005 H 0.0 **** 0.06
24701 C 5.187049509509638 97.24726569929783 78.74634650576422 C 0.0 **** -0.24
24702 H 4.280122562421829 96.7294234752167 78.43196502442314 H 0.0 **** 0.06
24703 H 5.229835840914912 97.275546416768 79.83526305464983 H 0.0 **** 0.06
24704 H 5.177729544844237 98.26473164905616 78.35548350369274 H 0.0 **** 0.06
24705 H 6.058457415068418 96.71712777061573 78.3617808357615 H 0.0 **** 0.06
24706 C 99.44823856927057 22.6644077172553 88.14517647233436 C 0.0 **** -0.24
24707 H 99.61819131102156 22.50780149748948 89.21082102210394 H 0.0 **** 0.06
24708 H 100.4065402994091 22.73768582027435 87.63092670445431 H 0.0 **** 0.06
24709 H 98.88602511600777 23.58731905449818 87.9995727380261 H 0.0 **** 0.06
24710 H 98.88146461457767 21.82596745093926 87.74142423243211 H 0.0 **** 0.06
24711 C 94.73817343412759 0.35793150635839766 83.06260375650601 C 0.0 **** -0.24
24712 H 95.6187663493458 0.9883612887390996 83.18655181480511 H 0.0 **** 0.06
24713 H 94.27205117151904 0.1917828652148046 84.03312182009347 H 0.0 **** 0.06
24714 H 95.03428114031767 -0.5980274693562251 82.63191091800232 H 0.0 **** 0.06
24715 H 94.02895440456612 0.8519053108510093 82.39789179634369 H 0.0 **** 0.06
24716 C 65.59005113795233 0.29817959489341606 9.290771415073792 C 0.0 **** -0.24
24717 H 64.50112273255331 0.2628043147976822 9.256011806763738 H 0.0 **** 0.06
24718 H 65.94727201847228 -0.30751381915169596 10.124321348816139 H 0.0 **** 0.06
24719 H 65.91536224230333 1.3293802554903538 9.424941265828977 H 0.0 **** 0.06
24720 H 65.9959108597022 -0.09279456640415917 8.357759197378343 H 0.0 **** 0.06
24721 C 6.206013981529182 73.84686210367673 78.7638287131924 C 0.0 **** -0.24
24722 H 6.142223381931402 74.92609864048958 78.61951642893834 H 0.0 **** 0.06
24723 H 6.782151381161725 73.63523452606954 79.66523385258725 H 0.0 **** 0.06
24724 H 6.698259739365241 73.39377146668654 77.90319249239721 H 0.0 **** 0.06
24725 H 5.2030861608660075 73.43442264932968 78.8687531555457 H 0.0 **** 0.06
24726 C 7.359948142762406 64.2887492101737 80.11860506530473 C 0.0 **** -0.24
24727 H 8.030625998748988 64.27140813342947 80.97773381749771 H 0.0 **** 0.06
24728 H 7.015782363033674 63.27652445292273 79.90508530303697 H 0.0 **** 0.06
24729 H 7.889960869689981 64.68337851608572 79.25149783621626 H 0.0 **** 0.06
24730 H 6.502749629697316 64.92555448747692 80.33987076298273 H 0.0 **** 0.06
24731 C 40.746152671498436 47.232558930969674 41.4558992772281 C 0.0 **** -0.24
24732 H 39.842056751213924 47.644621841535205 41.00704244315284 H 0.0 **** 0.06
24733 H 41.44693914175712 46.952267717007004 40.668885357630984 H 0.0 **** 0.06
24734 H 40.48969173397214 46.352429865571736 42.04535437451324 H 0.0 **** 0.06
24735 H 41.20449668152022 47.982152983921196 42.101116480580345 H 0.0 **** 0.06
24736 C 21.005580155707435 89.46393250982675 26.027507571779566 C 0.0 **** -0.24
24737 H 19.944958463489865 89.48044488634335 26.278855312675148 H 0.0 **** 0.06
24738 H 21.46619405876478 90.40235613339588 26.334179358400135 H 0.0 **** 0.06
24739 H 21.121627899347462 89.3362830706549 24.951040076004723 H 0.0 **** 0.06
24740 H 21.487981987776244 88.63503387961713 26.54496888928274 H 0.0 **** 0.06
24741 C 38.23462799958713 84.90432329306128 83.7666184279249 C 0.0 **** -0.24
24742 H 38.4612995288948 83.94695831580162 83.29740949304917 H 0.0 **** 0.06
24743 H 38.38953505249606 84.82600223724143 84.84289596783643 H 0.0 **** 0.06
24744 H 37.19665588807942 85.17059367738852 83.56714992388115 H 0.0 **** 0.06
24745 H 38.891661155695886 85.67264030182082 83.35963797182828 H 0.0 **** 0.06
24746 C 76.62626931535678 8.074086628419536 63.68108111395364 C 0.0 **** -0.24
24747 H 77.02013646200083 8.810464865727184 64.38133210666561 H 0.0 **** 0.06
24748 H 77.18177485542142 8.131524536142834 62.74448182125306 H 0.0 **** 0.06
24749 H 75.57247204736598 8.27918138179973 63.49214680231779 H 0.0 **** 0.06
24750 H 76.73133169679159 7.076437166039753 64.1064093567064 H 0.0 **** 0.06
24751 C 88.44652615795408 32.24582290819466 66.05930030068647 C 0.0 **** -0.24
24752 H 89.34596386537284 32.029619119458154 66.63744693104567 H 0.0 **** 0.06
24753 H 87.91934465733054 31.315581664833864 65.8463716152464 H 0.0 **** 0.06
24754 H 88.72467754774684 32.73025330132116 65.12308038721143 H 0.0 **** 0.06
24755 H 87.79778734786413 32.90854706426504 66.63307936190145 H 0.0 **** 0.06
24756 C 64.7988670429807 90.76484858482291 45.872522094585975 C 0.0 **** -0.24
24757 H 65.8043594945276 90.62986680320479 46.27212388796755 H 0.0 **** 0.06
24758 H 64.5471965090162 89.92109068588873 45.231673314768045 H 0.0 **** 0.06
24759 H 64.75921466793528 91.68753825623381 45.29265037058508 H 0.0 **** 0.06
24760 H 64.08667188541403 90.82196173340103 46.695633780928745 H 0.0 **** 0.06
24761 C 31.620705790251435 79.69368497082391 69.79297091826082 C 0.0 **** -0.24
24762 H 30.732617519346718 79.18188674336223 70.16116980135571 H 0.0 **** 0.06
24763 H 32.230979199417334 78.99486293537956 69.21998323769769 H 0.0 **** 0.06
24764 H 32.19796049509634 80.07323516678379 70.63658836816084 H 0.0 **** 0.06
24765 H 31.322656395032524 80.5249502974207 69.15397309006815 H 0.0 **** 0.06
24766 C 21.933286458453864 9.617317563847664 102.34849035445257 C 0.0 **** -0.24
24767 H 21.950638974542244 10.67677344633455 102.60449199294176 H 0.0 **** 0.06
24768 H 22.52671933447428 9.451017100610784 101.45046964199767 H 0.0 **** 0.06
24769 H 20.904471129611068 9.30511284267557 102.16834887828912 H 0.0 **** 0.06
24770 H 22.350113468354124 9.038195969258638 103.17270218756843 H 0.0 **** 0.06
24771 C 31.516900865989633 32.90368034022458 62.95638469970939 C 0.0 **** -0.24
24772 H 31.80403272949129 32.00075481037817 62.417806503720215 H 0.0 **** 0.06
24773 H 30.68030849611521 33.38088329478464 62.44469698694343 H 0.0 **** 0.06
24774 H 32.36285674229202 33.5908967410611 62.989263596410524 H 0.0 **** 0.06
24775 H 31.221234477965673 32.64208019649624 63.971697653981266 H 0.0 **** 0.06
24776 C 39.39587297222421 68.0205773356339 66.98144284987802 C 0.0 **** -0.24
24777 H 38.358860538305734 67.7290429445859 67.15014866591518 H 0.0 **** 0.06
24778 H 40.00323162272229 67.12940810392698 66.82711358720964 H 0.0 **** 0.06
24779 H 39.764754019472306 68.56762573396011 67.8494356838363 H 0.0 **** 0.06
24780 H 39.45505253447695 68.6580932235633 66.09907558073533 H 0.0 **** 0.06
24781 C 76.97702671330234 23.624990361813442 75.71047352091594 C 0.0 **** -0.24
24782 H 77.04809526568407 24.550854812105346 75.13991592134725 H 0.0 **** 0.06
24783 H 77.59012868996746 23.70488492703489 76.60857739417419 H 0.0 **** 0.06
24784 H 77.33192171375046 22.793919629662145 75.10063198081333 H 0.0 **** 0.06
24785 H 75.93909902955185 23.451097969203136 75.99380416316262 H 0.0 **** 0.06
24786 C 36.90364566230285 83.3274008191029 101.55096004056536 C 0.0 **** -0.24
24787 H 35.93756554924921 83.5381330952248 102.01026479430804 H 0.0 **** 0.06
24788 H 37.698112406551864 83.51384508580864 102.27414319384877 H 0.0 **** 0.06
24789 H 37.04180296348361 83.97414676547751 100.68394216669304 H 0.0 **** 0.06
24790 H 36.93623623252342 82.28468275593198 101.23459535087191 H 0.0 **** 0.06
24791 C 34.400448489728404 30.02682803665752 53.57165092677721 C 0.0 **** -0.24
24792 H 35.10509914398074 29.71497933113276 54.342081658734834 H 0.0 **** 0.06
24793 H 34.71317585297756 30.98616072989092 53.15925416247416 H 0.0 **** 0.06
24794 H 33.40587135320064 30.126614315873645 54.00833708989272 H 0.0 **** 0.06
24795 H 34.37512639324319 29.280108123459897 52.77808879061128 H 0.0 **** 0.06
24796 C 74.68094802998411 80.87602747655527 51.70367931550726 C 0.0 **** -0.24
24797 H 74.34900468904556 80.6391210995163 52.7152102140999 H 0.0 **** 0.06
24798 H 75.7632799148488 80.76425644388732 51.641088397421015 H 0.0 **** 0.06
24799 H 74.40763516784256 81.90398352523712 51.46382480450251 H 0.0 **** 0.06
24800 H 74.20288782280494 80.19845736620806 50.99685483121314 H 0.0 **** 0.06
24801 C 101.86130016976396 35.06336059536423 30.413385242117307 C 0.0 **** -0.24
24802 H 100.81462808155788 35.360053059266505 30.480129712711253 H 0.0 **** 0.06
24803 H 101.92904164510992 33.975333380133335 30.392370666811196 H 0.0 **** 0.06
24804 H 102.40339161951488 35.444571516506 31.279139727647717 H 0.0 **** 0.06
24805 H 102.2980120185494 35.47209024678736 29.50210123278717 H 0.0 **** 0.06
24806 C 32.50979852615055 24.236348564186727 46.41810022362549 C 0.0 **** -0.24
24807 H 33.137064017399226 24.43350373235299 45.54837522087499 H 0.0 **** 0.06
24808 H 31.60927143255934 23.7081179558825 46.103565452015715 H 0.0 **** 0.06
24809 H 32.23149894807582 25.180003780320277 46.88738999362383 H 0.0 **** 0.06
24810 H 33.05979204559137 23.62278143247906 47.13181811058013 H 0.0 **** 0.06
24811 C 25.047426809733025 64.21680008248649 93.93919040452522 C 0.0 **** -0.24
24812 H 25.23999102541174 63.60728883304364 94.82194277901755 H 0.0 **** 0.06
24813 H 25.377591553916744 65.23892136033078 94.1244012023671 H 0.0 **** 0.06
24814 H 23.978590946770538 64.21372253019115 93.72270902339068 H 0.0 **** 0.06
24815 H 25.591872487678927 63.80567922755637 93.08855576147482 H 0.0 **** 0.06
24816 C 31.06629939947102 90.47834811050578 93.71332026051519 C 0.0 **** -0.24
24817 H 30.707496352511185 89.9610506583193 92.8235014996213 H 0.0 **** 0.06
24818 H 30.541896714532555 90.09890264132196 94.59038278532562 H 0.0 **** 0.06
24819 H 30.87797079126176 91.54758974904925 93.6115243505231 H 0.0 **** 0.06
24820 H 32.13707830069407 90.30669445066388 93.82594486399991 H 0.0 **** 0.06
24821 C 62.345952651264696 57.67039779253501 70.67813185901261 C 0.0 **** -0.24
24822 H 61.37284052798174 57.946130619848084 71.0853454918753 H 0.0 **** 0.06
24823 H 62.21498363256865 57.23617745756252 69.68735716779803 H 0.0 **** 0.06
24824 H 62.82054177810866 56.94130707698915 71.33535071603593 H 0.0 **** 0.06
24825 H 62.97385249767919 58.55875731631066 70.60689376747567 H 0.0 **** 0.06
24826 C 67.94031296962629 34.194435323816634 61.27699290497942 C 0.0 **** -0.24
24827 H 67.52464179113383 34.23351740282635 62.28428075274002 H 0.0 **** 0.06
24828 H 68.58035997742238 33.31701903185558 61.18222369047078 H 0.0 **** 0.06
24829 H 68.5271048578847 35.094061880295655 61.092593812120285 H 0.0 **** 0.06
24830 H 67.12966354399785 34.134294083523216 60.55177281199886 H 0.0 **** 0.06
24831 C 17.045626626884484 92.15158349873279 91.92266619281537 C 0.0 **** -0.24
24832 H 16.86416265677232 92.77256010213048 91.04591106556018 H 0.0 **** 0.06
24833 H 16.116218329530543 92.02881236212974 92.4795290233065 H 0.0 **** 0.06
24834 H 17.789760988281685 92.63131822385287 92.55928256218152 H 0.0 **** 0.06
24835 H 17.412350825825207 91.17444505174214 91.60710707055023 H 0.0 **** 0.06
24836 C 80.34477462487712 56.97873048535348 61.06728062094341 C 0.0 **** -0.24
24837 H 80.13660589957652 58.033557456241056 60.88501542465211 H 0.0 **** 0.06
24838 H 81.36787826463706 56.867386780033655 61.42809398702764 H 0.0 **** 0.06
24839 H 80.22258798484137 56.4195887613202 60.1402900015465 H 0.0 **** 0.06
24840 H 79.65111738858633 56.59638329550825 61.81616644387195 H 0.0 **** 0.06
24841 C 36.548444126833516 3.791862908367193 3.652896936054276 C 0.0 **** -0.24
24842 H 36.90675212057542 2.771182942599495 3.5187831822528466 H 0.0 **** 0.06
24843 H 37.40001694769967 4.466518063455624 3.7470452778792094 H 0.0 **** 0.06
24844 H 35.93948499663682 3.8467062794359492 4.555710719141345 H 0.0 **** 0.06
24845 H 35.9475398563998 4.082215717114622 2.7915694876211603 H 0.0 **** 0.06
24846 C 29.210593581271155 37.14328855717258 93.85036969879486 C 0.0 **** -0.24
24847 H 29.470348993945066 36.198343341874704 94.32831781980998 H 0.0 **** 0.06
24848 H 30.110275013387877 37.599214420072315 93.43602482339703 H 0.0 **** 0.06
24849 H 28.768966515647307 37.813679489026015 94.58714524369381 H 0.0 **** 0.06
24850 H 28.494215181867048 36.9591716676328 93.04934679260892 H 0.0 **** 0.06
24851 C 100.5440838443526 74.74031763024104 2.979446662028579 C 0.0 **** -0.24
24852 H 100.14884526386646 75.48482385620608 3.670172098321075 H 0.0 **** 0.06
24853 H 99.72150095165847 74.2852963699278 2.4257844522951473 H 0.0 **** 0.06
24854 H 101.07574534123461 73.97074008153524 3.5387168452534183 H 0.0 **** 0.06
24855 H 101.23033833214163 75.22070917411986 2.2808992241860437 H 0.0 **** 0.06
24856 C 47.08702794440248 23.61376661017171 89.36124214561116 C 0.0 **** -0.24
24857 H 48.15216023811243 23.696665799877195 89.57589441949165 H 0.0 **** 0.06
24858 H 46.94263335937828 23.453830504330696 88.2922092151237 H 0.0 **** 0.06
24859 H 46.58328237010775 24.53276767956001 89.6620962163395 H 0.0 **** 0.06
24860 H 46.66969825840184 22.77335806534829 89.91545157808295 H 0.0 **** 0.06
24861 C 74.8937783351862 96.1487784842019 43.94678129270279 C 0.0 **** -0.24
24862 H 74.35883110282884 96.8655378974428 44.57037341947825 H 0.0 **** 0.06
24863 H 74.86888101763026 95.16645882741466 44.4205924505245 H 0.0 **** 0.06
24864 H 75.92861520969092 96.46994066195406 43.83147660790073 H 0.0 **** 0.06
24865 H 74.41809938844312 96.09317531679565 42.96836089806416 H 0.0 **** 0.06
24866 C 26.318773071934856 21.811427727617456 64.29161514588246 C 0.0 **** -0.24
24867 H 25.539584426936358 22.024424170284618 63.55920793950499 H 0.0 **** 0.06
24868 H 26.935307381966197 22.6985117148746 64.43292367583983 H 0.0 **** 0.06
24869 H 26.939340074266852 20.991024746814418 63.931051344156245 H 0.0 **** 0.06
24870 H 25.86012746891862 21.531493296607493 65.23922823537674 H 0.0 **** 0.06
24871 C 83.78571451694609 59.37167477988128 43.36076732762032 C 0.0 **** -0.24
24872 H 84.64276620989807 58.71581694129664 43.213483522969085 H 0.0 **** 0.06
24873 H 83.92542679954283 59.952730404304134 44.2722998523592 H 0.0 **** 0.06
24874 H 82.87979654877364 58.77082553028174 43.44863417284486 H 0.0 **** 0.06
24875 H 83.69381036043421 60.045984541192624 42.509691155946 H 0.0 **** 0.06
24876 C 83.48214368743587 70.49985254473384 26.262974841622196 C 0.0 **** -0.24
24877 H 83.81010630588918 70.70828525746171 25.244502926935667 H 0.0 **** 0.06
24878 H 82.91149220336638 69.57175390705169 26.27870604720738 H 0.0 **** 0.06
24879 H 82.85577790536482 71.31891942418228 26.617048397485803 H 0.0 **** 0.06
24880 H 84.35290507005166 70.40269552989496 26.91141361120819 H 0.0 **** 0.06
24881 C 90.24088209750016 89.93814134719526 18.67834890137921 C 0.0 **** -0.24
24882 H 91.3134738803559 89.74145898260494 18.69145148211031 H 0.0 **** 0.06
24883 H 89.70259198913925 89.00166900024915 18.5267570670144 H 0.0 **** 0.06
24884 H 90.0085090762779 90.62766548203047 17.866861411112737 H 0.0 **** 0.06
24885 H 89.94195937868997 90.37964502579376 19.628989954801796 H 0.0 **** 0.06
24886 C 103.47652775739832 10.794124276024483 29.65644718754453 C 0.0 **** -0.24
24887 H 102.87708672384625 11.693079375538836 29.801866946780734 H 0.0 **** 0.06
24888 H 103.61443352008547 10.290734217711117 30.613354265861886 H 0.0 **** 0.06
24889 H 104.44828523035386 11.067915972610527 29.24528999359626 H 0.0 **** 0.06
24890 H 102.96546344757326 10.12518983843631 28.964222741018745 H 0.0 **** 0.06
24891 C 92.54459304363462 43.869851514836036 85.12381143034531 C 0.0 **** -0.24
24892 H 91.80355010223406 43.453546221005176 84.44111238361357 H 0.0 **** 0.06
24893 H 93.3604465975776 44.30925986310771 84.55005888837935 H 0.0 **** 0.06
24894 H 92.93480505586723 43.07738772382905 85.76289863885742 H 0.0 **** 0.06
24895 H 92.07847595803617 44.63789238228672 85.7409303738419 H 0.0 **** 0.06
24896 C 102.67741431346673 30.69632007407762 89.22288019232445 C 0.0 **** -0.24
24897 H 103.50954325894406 30.819877020724277 88.53152739203964 H 0.0 **** 0.06
24898 H 102.47406777932741 29.633852749216743 89.35985141866487 H 0.0 **** 0.06
24899 H 101.79221097664907 31.186188082226067 88.81852880288024 H 0.0 **** 0.06
24900 H 102.93359026653417 31.143701213095227 90.18339657271692 H 0.0 **** 0.06
24901 C 25.517177465151008 102.45303953889066 76.45392814210808 C 0.0 **** -0.24
24902 H 24.927783231502673 101.54419115122144 76.33959670577767 H 0.0 **** 0.06
24903 H 24.86043541645421 103.32104088668578 76.39841025399318 H 0.0 **** 0.06
24904 H 26.260523334332277 102.50724312803034 75.65848323326347 H 0.0 **** 0.06
24905 H 26.02179417747078 102.43961950365201 77.42051110778499 H 0.0 **** 0.06
24906 C 93.21159727480698 30.32036614875591 96.3039468007916 C 0.0 **** -0.24
24907 H 92.78961398197644 29.968843411313316 97.24515376291956 H 0.0 **** 0.06
24908 H 93.25239360791701 31.410497201160922 96.30984140274367 H 0.0 **** 0.06
24909 H 92.58687166967839 29.984017736880105 95.4772719483939 H 0.0 **** 0.06
24910 H 94.21908334846142 29.91998964204265 96.18551441822476 H 0.0 **** 0.06
24911 C 40.147332568456164 53.016931379062754 100.72767684431858 C 0.0 **** -0.24
24912 H 39.15947654157242 52.81038327969745 101.1399486938258 H 0.0 **** 0.06
24913 H 40.824441997197255 52.201455546527825 100.98178448460513 H 0.0 **** 0.06
24914 H 40.52804109113228 53.94924868225209 101.14491200645293 H 0.0 **** 0.06
24915 H 40.076639758639345 53.10634564090631 99.64288727945174 H 0.0 **** 0.06
24916 C 25.390209799269883 20.67465514023496 91.97435616337273 C 0.0 **** -0.24
24917 H 24.640301758442433 21.437051113390595 92.1854438718966 H 0.0 **** 0.06
24918 H 25.386068653248685 19.931189529042598 92.77130687283211 H 0.0 **** 0.06
24919 H 26.37399655751534 21.139837659974802 91.91679298753088 H 0.0 **** 0.06
24920 H 25.159790049972457 20.192486009910766 91.02475080290696 H 0.0 **** 0.06
24921 C 11.78497322961568 78.94531719331869 73.5185732745982 C 0.0 **** -0.24
24922 H 10.921185798099645 79.5940165213268 73.37305982923314 H 0.0 **** 0.06
24923 H 12.671803841446582 79.42253018260494 73.09883759484211 H 0.0 **** 0.06
24924 H 11.612507894464493 77.99313808711288 73.01665856611203 H 0.0 **** 0.06
24925 H 11.934292200229086 78.77268655478626 74.58379445100093 H 0.0 **** 0.06
24926 C 70.12462218810597 14.756657254677066 104.28129251513259 C 0.0 **** -0.24
24927 H 70.86385733088494 13.977404722611936 104.46615352189784 H 0.0 **** 0.06
24928 H 69.12401181282584 14.326147060600931 104.32684008866448 H 0.0 **** 0.06
24929 H 70.29002568166518 15.186922781437602 103.29335679528856 H 0.0 **** 0.06
24930 H 70.22078601487388 15.534617766094868 105.03804387731724 H 0.0 **** 0.06
24931 C 67.41704295129534 79.55916907253149 92.86078934728727 C 0.0 **** -0.24
24932 H 67.39421536972436 79.5083999042559 91.77330877721027 H 0.0 **** 0.06
24933 H 68.45239802949374 79.61198038041545 93.20081969810494 H 0.0 **** 0.06
24934 H 66.94226818476368 78.67019796258967 93.27660783686287 H 0.0 **** 0.06
24935 H 66.88038753434184 80.447651370394 93.19474131228012 H 0.0 **** 0.06
24936 C 27.186562663626358 38.445997116531885 102.82521917907643 C 0.0 **** -0.24
24937 H 27.650575107861858 37.600248749539105 103.33120118481166 H 0.0 **** 0.06
24938 H 27.81255274458551 39.330223002515154 102.94603605779642 H 0.0 **** 0.06
24939 H 26.204079660567896 38.634086553884416 103.2590477792185 H 0.0 **** 0.06
24940 H 27.077601982804435 38.21870826966607 101.76395760153736 H 0.0 **** 0.06
24941 C 91.67242411831774 95.75013828625052 51.903254921074144 C 0.0 **** -0.24
24942 H 90.59324356597243 95.71570925173623 51.75274677792933 H 0.0 **** 0.06
24943 H 92.1686479324581 95.20615700581376 51.09882589787238 H 0.0 **** 0.06
24944 H 91.92029263166498 95.29107749927093 52.85971717869379 H 0.0 **** 0.06
24945 H 92.006288584058 96.78743299089703 51.90104325153433 H 0.0 **** 0.06
24946 C 36.905357691406834 89.5100239614404 72.50758817465214 C 0.0 **** -0.24
24947 H 37.44229173786783 90.4013385165957 72.83083554208201 H 0.0 **** 0.06
24948 H 37.62101555365834 88.72461086288604 72.2597557621724 H 0.0 **** 0.06
24949 H 36.305922823509206 89.7456820213511 71.62885341608865 H 0.0 **** 0.06
24950 H 36.253468228660736 89.16694799784378 73.31060168058139 H 0.0 **** 0.06
24951 C 95.74294581217538 70.01951845154542 85.24866622386911 C 0.0 **** -0.24
24952 H 95.00535288080897 70.64773327820133 85.7499761023016 H 0.0 **** 0.06
24953 H 95.28960554200123 69.55955890121587 84.37112450101256 H 0.0 **** 0.06
24954 H 96.08237505644188 69.24226316532214 85.93366311178251 H 0.0 **** 0.06
24955 H 96.59168060025823 70.63138887166312 84.9423696738904 H 0.0 **** 0.06
24956 C 53.566996262991886 87.91998604919449 101.60816416314233 C 0.0 **** -0.24
24957 H 53.11141435897402 87.39415040901099 102.44650160036663 H 0.0 **** 0.06
24958 H 52.85579472528011 87.97343679846571 100.7833131821967 H 0.0 **** 0.06
24959 H 54.45864985432766 87.38385739222838 101.28421877868688 H 0.0 **** 0.06
24960 H 53.84147777739678 88.92908695754396 101.91751189366863 H 0.0 **** 0.06
24961 C 13.692670618368478 24.18018319858359 104.02067181229349 C 0.0 **** -0.24
24962 H 13.811894624667264 23.181394274379883 104.44060874831862 H 0.0 **** 0.06
24963 H 14.133799099602442 24.209205180088414 103.02374245157547 H 0.0 **** 0.06
24964 H 14.194077439746302 24.906261953450766 104.66092611170656 H 0.0 **** 0.06
24965 H 12.63189197297541 24.423486481025613 103.95603506119693 H 0.0 **** 0.06
24966 C 106.51052835861465 84.2881776684718 12.080099626743902 C 0.0 **** -0.24
24967 H 107.15492932340837 83.58927282106058 12.61371384580599 H 0.0 **** 0.06
24968 H 106.14272628341861 85.04359849570591 12.773042353612738 H 0.0 **** 0.06
24969 H 105.66775598086795 83.74727871212002 11.649802356781493 H 0.0 **** 0.06
24970 H 107.07763986362805 84.76894394430406 11.283639338944681 H 0.0 **** 0.06
24971 C 54.89513821762117 22.789752374503507 57.61086626131288 C 0.0 **** -0.24
24972 H 54.72547863349254 22.16029030629474 56.73752164395347 H 0.0 **** 0.06
24973 H 55.67901684640941 22.350134308732578 58.22960212755888 H 0.0 **** 0.06
24974 H 53.97437419074788 22.864096176496645 58.19026194305766 H 0.0 **** 0.06
24975 H 55.20228671681278 23.784409953707353 57.287700966707206 H 0.0 **** 0.06
24976 C 80.50580754188377 33.33798510054032 81.39712351529502 C 0.0 **** -0.24
24977 H 80.32984052405834 34.127830257476404 82.12771229562594 H 0.0 **** 0.06
24978 H 80.89037027769706 33.775574468225386 80.47464052999462 H 0.0 **** 0.06
24979 H 79.56856763738978 32.819991571575514 81.18995246479497 H 0.0 **** 0.06
24980 H 81.23172037222719 32.62982485618184 81.79397517317338 H 0.0 **** 0.06
24981 C 84.27298817018024 77.07642526722212 4.275642997957996 C 0.0 **** -0.24
24982 H 84.03016614465389 77.82942416795947 5.026219365436324 H 0.0 **** 0.06
24983 H 83.353741570843 76.60912239477435 3.9199949925560995 H 0.0 **** 0.06
24984 H 84.91837838763385 76.31826764266515 4.718642057478759 H 0.0 **** 0.06
24985 H 84.78759902355219 77.5491965057512 3.440088296835378 H 0.0 **** 0.06
24986 C 25.54493286337288 43.631978347305335 28.136587555545418 C 0.0 **** -0.24
24987 H 25.67190769699394 44.513247333018455 27.50746269148044 H 0.0 **** 0.06
24988 H 25.90381950862883 42.75143309835545 27.604516029462815 H 0.0 **** 0.06
24989 H 24.4887700119871 43.507310269356424 28.37681169638708 H 0.0 **** 0.06
24990 H 26.114364813933406 43.75797220275837 29.057769153806845 H 0.0 **** 0.06
24991 C 84.13043329599698 87.4344834672405 14.835709947386718 C 0.0 **** -0.24
24992 H 83.84225971897752 86.5114142352167 14.33317749235826 H 0.0 **** 0.06
24993 H 83.23894867169652 88.02547663684554 15.047672170938029 H 0.0 **** 0.06
24994 H 84.80030516904367 88.00418303321366 14.19160763574871 H 0.0 **** 0.06
24995 H 84.63930497754369 87.19613087989762 15.769587537489912 H 0.0 **** 0.06
24996 C 79.39185498398408 7.8950978206488 25.63927263273068 C 0.0 **** -0.24
24997 H 78.54012460073432 8.217755098661769 25.041490660025104 H 0.0 **** 0.06
24998 H 79.51741731549161 6.816578627903539 25.540808502494613 H 0.0 **** 0.06
24999 H 79.21701864837155 8.146828442765809 26.685949144252277 H 0.0 **** 0.06
25000 H 80.29292776489983 8.399613391878063 25.29052976390153 H 0.0 **** 0.06
25001 C 16.212747676149032 7.58988497673397 1.1158735504283896 C 0.0 **** -0.24
25002 H 15.795191547037753 8.503736438974077 0.6919830692897477 H 0.0 **** 0.06
25003 H 17.149443666034774 7.351340002085109 0.6111898211491678 H 0.0 **** 0.06
25004 H 15.507316510147913 6.77099311820551 0.9807934783402317 H 0.0 **** 0.06
25005 H 16.400043162923513 7.736783495167543 2.1796512252442 H 0.0 **** 0.06
25006 C 23.70173789404605 21.90076515067598 60.875922569380094 C 0.0 **** -0.24
25007 H 22.919677222722093 22.16804850094966 61.58653738845595 H 0.0 **** 0.06
25008 H 24.63461737495227 22.38504808405887 61.16343185970618 H 0.0 **** 0.06
25009 H 23.412635342564933 22.230031506024055 59.87750776446558 H 0.0 **** 0.06
25010 H 23.837601759706633 20.819817309214724 60.87657548537018 H 0.0 **** 0.06
25011 C 106.18909652105287 63.016819766525515 93.72803861812935 C 0.0 **** -0.24
25012 H 105.62754073250434 63.73653099332233 94.3232726326197 H 0.0 **** 0.06
25013 H 106.14602864417482 62.03818753466541 94.20573706357607 H 0.0 **** 0.06
25014 H 107.22790459452027 63.33910733518317 93.65422647560115 H 0.0 **** 0.06
25015 H 105.75614348784602 62.95476536913475 92.73024576677 H 0.0 **** 0.06
25016 C 15.655377143692249 45.52662178201547 7.899158708300725 C 0.0 **** -0.24
25017 H 15.969044902958387 46.55347778305611 8.085104842149825 H 0.0 **** 0.06
25018 H 15.85056274482497 45.27075007328358 6.8566458484860195 H 0.0 **** 0.06
25019 H 14.589208556374558 45.42938949289078 8.104132209949087 H 0.0 **** 0.06
25020 H 16.2139407142202 44.852232273229674 8.549009676872794 H 0.0 **** 0.06
25021 C 8.758286211016127 54.730631543346846 84.61282294793355 C 0.0 **** -0.24
25022 H 9.738652190189782 54.847572276041234 85.07287625213675 H 0.0 **** 0.06
25023 H 8.32906966531607 53.773229855027694 84.90982617226464 H 0.0 **** 0.06
25024 H 8.860803072422073 54.76216868014413 83.52746564548977 H 0.0 **** 0.06
25025 H 8.104791044551519 55.540336606407294 84.93880841434665 H 0.0 **** 0.06
25026 C 63.43769142002918 2.3691482179095686 84.89670472595927 C 0.0 **** -0.24
25027 H 62.93107551189536 1.4104122180951748 85.00156774609232 H 0.0 **** 0.06
25028 H 64.51029825613693 2.228788556328439 85.03022792155502 H 0.0 **** 0.06
25029 H 63.064800788102005 3.0619298221151894 85.65138542185576 H 0.0 **** 0.06
25030 H 63.24459112398243 2.775462275099315 83.90363781433376 H 0.0 **** 0.06
25031 C 28.55383462038725 7.058780376756982 19.230853211432255 C 0.0 **** -0.24
25032 H 29.622319434757827 6.845799111535703 19.1975832466978 H 0.0 **** 0.06
25033 H 28.130111101183985 6.647314460270204 20.146682268873285 H 0.0 **** 0.06
25034 H 28.06535934490458 6.605676315732191 18.36825926481585 H 0.0 **** 0.06
25035 H 28.398665330749424 8.13790370646864 19.21035736700474 H 0.0 **** 0.06
25036 C 105.41243544657632 94.84205945846459 61.49141959972309 C 0.0 **** -0.24
25037 H 106.11082044027863 94.45724940380998 62.23392029655059 H 0.0 **** 0.06
25038 H 105.96367178281663 95.37625121879891 60.716893668210275 H 0.0 **** 0.06
25039 H 104.71047827646512 95.52355216193557 61.9717065162273 H 0.0 **** 0.06
25040 H 104.86583058393332 94.01315099070509 61.043043052095754 H 0.0 **** 0.06
25041 C 83.34045637164701 35.064274182703 100.25045564266927 C 0.0 **** -0.24
25042 H 84.31806169546019 35.546167360544985 100.24790696171837 H 0.0 **** 0.06
25043 H 83.43666125748268 34.04530721251933 99.8727749083325 H 0.0 **** 0.06
25044 H 82.65636961802406 35.62537198915231 99.61311482794471 H 0.0 **** 0.06
25045 H 82.95079323589067 35.039252001178 101.26801754683578 H 0.0 **** 0.06
25046 C 18.453683301744178 29.641216021663467 78.16349807532202 C 0.0 **** -0.24
25047 H 18.891484944516037 28.69934694662706 77.8332026556995 H 0.0 **** 0.06
25048 H 19.058597278068248 30.470630318056124 77.79744657417388 H 0.0 **** 0.06
25049 H 18.423352508819235 29.66573078800738 79.25220727291492 H 0.0 **** 0.06
25050 H 17.441415346784055 29.728150388122003 77.76941092118398 H 0.0 **** 0.06
25051 C 82.90224871632486 71.28947873419321 52.384215037884765 C 0.0 **** -0.24
25052 H 83.05231870017936 71.28094647747386 53.463699589694635 H 0.0 **** 0.06
25053 H 82.65336163350695 72.30006555113931 52.059048538463564 H 0.0 **** 0.06
25054 H 82.08706554601608 70.61263822760145 52.12568825427164 H 0.0 **** 0.06
25055 H 83.8165691874119 70.96297906244473 51.887929048016126 H 0.0 **** 0.06
25056 C 102.48831084333688 96.41065260444424 100.30766269463595 C 0.0 **** -0.24
25057 H 102.8451064339647 96.22450230046195 99.29518176608256 H 0.0 **** 0.06
25058 H 103.3128808221102 96.28759307180862 101.01124602322076 H 0.0 **** 0.06
25059 H 101.69475295509639 95.70400223657727 100.54956106152737 H 0.0 **** 0.06
25060 H 102.10210243024181 97.42716606345122 100.3745364752191 H 0.0 **** 0.06
25061 C 59.50061473256145 4.94990148055831 17.469184497725397 C 0.0 **** -0.24
25062 H 59.929023916239366 4.742471029813657 18.448869552102806 H 0.0 **** 0.06
25063 H 58.47739013503827 4.57319677357259 17.43328477819304 H 0.0 **** 0.06
25064 H 60.096440764863885 4.458709519518891 16.699784399649914 H 0.0 **** 0.06
25065 H 59.497971150439234 6.025705183399623 17.29447301651588 H 0.0 **** 0.06
25066 C 27.194480414132958 23.759128674041392 98.87162515215545 C 0.0 **** -0.24
25067 H 26.448303945260506 23.764240940314664 99.6660024159594 H 0.0 **** 0.06
25068 H 26.72933753999212 23.445652538015338 97.93770574049108 H 0.0 **** 0.06
25069 H 27.995225509210705 23.06553132495779 99.12983970655584 H 0.0 **** 0.06
25070 H 27.606933297323163 24.761355041692923 98.75505055258236 H 0.0 **** 0.06
25071 C 55.82214210421864 5.455443228045354 17.970477349172484 C 0.0 **** -0.24
25072 H 56.09065636539492 5.631715886904203 19.011582387622752 H 0.0 **** 0.06
25073 H 55.95651312175505 4.399714639215844 17.73446401545789 H 0.0 **** 0.06
25074 H 56.46083243107182 6.057672962988306 17.323618196931704 H 0.0 **** 0.06
25075 H 54.77941435526475 5.733470269041135 17.812421724473154 H 0.0 **** 0.06
25076 C 8.072811205287849 65.70346852741903 72.80695784829362 C 0.0 **** -0.24
25077 H 8.686223919366768 66.33719081291815 72.16735049804167 H 0.0 **** 0.06
25078 H 8.120553380650605 64.67397928728354 72.45165331882089 H 0.0 **** 0.06
25079 H 7.039661876890179 66.05013223442091 72.77681710826364 H 0.0 **** 0.06
25080 H 8.442590181520174 65.75344049798045 73.83018359645223 H 0.0 **** 0.06
25081 C 51.72979115169818 49.89085690180518 101.58285377074135 C 0.0 **** -0.24
25082 H 52.161502678553404 50.89085078089695 101.62905035915213 H 0.0 **** 0.06
25083 H 52.32532163095152 49.26868600237857 100.91363736584401 H 0.0 **** 0.06
25084 H 50.70806855299651 49.95472155829994 101.20713313915923 H 0.0 **** 0.06
25085 H 51.72307643060935 49.45147097549382 102.57978484945663 H 0.0 **** 0.06
25086 C 17.1913284251979 87.39638297149357 104.25937868772144 C 0.0 **** -0.24
25087 H 16.58586122017986 86.83331536644546 103.54976963999457 H 0.0 **** 0.06
25088 H 16.537734935769972 87.94010291309024 104.94285580390004 H 0.0 **** 0.06
25089 H 17.821114255135477 88.10259435384764 103.71894278180059 H 0.0 **** 0.06
25090 H 17.81862058789426 86.70930258009646 104.82695755278417 H 0.0 **** 0.06
25091 C 28.46738239835173 14.181776489745928 13.019475571106682 C 0.0 **** -0.24
25092 H 28.63203739590017 13.38329062174762 13.742301770589336 H 0.0 **** 0.06
25093 H 29.199682327163515 14.973402617907865 13.181159335296059 H 0.0 **** 0.06
25094 H 27.462244473373744 14.584395220513205 13.145410570603957 H 0.0 **** 0.06
25095 H 28.577395067039248 13.78585457816855 12.010305752846136 H 0.0 **** 0.06
25096 C 21.655881558895928 38.98917680214099 77.16273415748833 C 0.0 **** -0.24
25097 H 22.618993410474218 39.45781208067435 77.36606213082567 H 0.0 **** 0.06
25098 H 21.117044236700423 39.576285921877336 76.41853931453149 H 0.0 **** 0.06
25099 H 21.07356605571706 38.94397709830131 78.08267128431409 H 0.0 **** 0.06
25100 H 21.81568416837593 37.97992437878366 76.78414024619694 H 0.0 **** 0.06
25101 C 106.49876904241879 49.7667043304981 58.03853860040783 C 0.0 **** -0.24
25102 H 105.88700152409014 49.64382746101239 58.931692248291085 H 0.0 **** 0.06
25103 H 106.27480322922327 50.726687136574526 57.57346007984364 H 0.0 **** 0.06
25104 H 106.28087006972927 48.962930328710115 57.335138921502164 H 0.0 **** 0.06
25105 H 107.55353689919801 49.73314051019844 58.313052694357 H 0.0 **** 0.06
25106 C 15.77499065290181 78.59482378723575 57.15208902336698 C 0.0 **** -0.24
25107 H 16.809064778779284 78.61629389575666 56.8085974980319 H 0.0 **** 0.06
25108 H 15.386800821725732 77.57904806202055 57.07385819982622 H 0.0 **** 0.06
25109 H 15.17392519145331 79.2627681734335 56.53499314633481 H 0.0 **** 0.06
25110 H 15.731490455448029 78.92218279527617 58.19039171290612 H 0.0 **** 0.06
25111 C 94.16547921286003 96.03889678024596 57.25840426716013 C 0.0 **** -0.24
25112 H 93.52662191131225 95.38394916979507 56.667198199184384 H 0.0 **** 0.06
25113 H 95.16719499016907 96.05475543152006 56.82788974407458 H 0.0 **** 0.06
25114 H 94.21652215580443 95.66871732456312 58.28289513938816 H 0.0 **** 0.06
25115 H 93.7525527915281 97.04808740661241 57.25706348493236 H 0.0 **** 0.06
25116 C 59.82331536600671 56.48280544860817 89.29130545507803 C 0.0 **** -0.24
25117 H 59.85932882566985 57.19452656955497 88.46631345496259 H 0.0 **** 0.06
25118 H 59.67189165207853 57.01908715609321 90.22837029812237 H 0.0 **** 0.06
25119 H 60.76311730410956 55.931959016185964 89.33559152689214 H 0.0 **** 0.06
25120 H 59.000674370425344 55.78555187974025 89.13323600698142 H 0.0 **** 0.06
25121 C 11.22502684759442 67.20492365057248 64.86008831617177 C 0.0 **** -0.24
25122 H 10.751606761617605 68.18692689891537 64.87390044173186 H 0.0 **** 0.06
25123 H 11.117711499992936 66.76438320281251 63.86869119401517 H 0.0 **** 0.06
25124 H 10.746299679168182 66.56039724674201 65.59753643979536 H 0.0 **** 0.06
25125 H 12.2825243200109 67.30877912901822 65.09951004607302 H 0.0 **** 0.06
25126 C 71.05822545628521 95.29483968366209 0.7145241499867439 C 0.0 **** -0.24
25127 H 71.7694564751857 94.66738134765062 1.2515298981760168 H 0.0 **** 0.06
25128 H 71.21667065054345 95.18779262791507 -0.35869892465157704 H 0.0 **** 0.06
25129 H 71.20490075761407 96.33676048392121 1.0019822945151873 H 0.0 **** 0.06
25130 H 70.04198993159801 94.98918904325339 0.9646516776931833 H 0.0 **** 0.06
25131 C 103.31701744221257 3.052995179204075 29.65256584241405 C 0.0 **** -0.24
25132 H 103.38613571587669 2.0059456004637752 29.358493527168378 H 0.0 **** 0.06
25133 H 103.12940737286908 3.6662192312930557 28.771306277978567 H 0.0 **** 0.06
25134 H 104.2531693105731 3.361655517778374 30.117896032455803 H 0.0 **** 0.06
25135 H 102.49935736953182 3.1781603672809524 30.362567532053163 H 0.0 **** 0.06
25136 C 106.7663724781784 41.936735139870905 27.300845215532746 C 0.0 **** -0.24
25137 H 106.60139314615066 41.17982399206744 28.06735680827751 H 0.0 **** 0.06
25138 H 106.77154641582803 41.46293411838457 26.31837098867075 H 0.0 **** 0.06
25139 H 107.72521194476542 42.42645364464076 27.473348577564735 H 0.0 **** 0.06
25140 H 105.9674983204253 42.676669458564504 27.342341723233886 H 0.0 **** 0.06
25141 C 62.85250789596063 7.823399394166586 23.64881271272688 C 0.0 **** -0.24
25142 H 62.97762931241232 7.596521902771855 24.707995408718233 H 0.0 **** 0.06
25143 H 62.749830634733485 6.894699830572392 23.08823696443619 H 0.0 **** 0.06
25144 H 63.72415033894674 8.370435182387268 23.290539114106224 H 0.0 **** 0.06
25145 H 61.9590044631409 8.432613942588972 23.511674221463863 H 0.0 **** 0.06
25146 C 38.01312226680261 83.33975632703492 53.37001884712336 C 0.0 **** -0.24
25147 H 36.9631960424704 83.05536982953298 53.43932935992345 H 0.0 **** 0.06
25148 H 38.24520341441561 84.06350227781319 54.1512344644255 H 0.0 **** 0.06
25149 H 38.20570222748134 83.78366339228657 52.393264943930006 H 0.0 **** 0.06
25150 H 38.63727049653369 82.45489041856888 53.4966878695659 H 0.0 **** 0.06
25151 C 95.35579563294174 24.910581858376503 26.508660843416607 C 0.0 **** -0.24
25152 H 96.07229751359911 24.182517010348874 26.88809503809577 H 0.0 **** 0.06
25153 H 94.91614779201377 25.456741022786346 27.343940260262485 H 0.0 **** 0.06
25154 H 94.56999113751506 24.394782594597643 25.957278855384715 H 0.0 **** 0.06
25155 H 95.86531889067392 25.609571730043868 25.845184445808854 H 0.0 **** 0.06
25156 C 100.85730922595405 76.3591571233435 42.05825308897074 C 0.0 **** -0.24
25157 H 100.81000703698328 76.33988367362878 43.147209818904585 H 0.0 **** 0.06
25158 H 101.70162469128482 76.97291065656728 41.742552669921295 H 0.0 **** 0.06
25159 H 99.93347095512411 76.78045947142719 41.661763629418154 H 0.0 **** 0.06
25160 H 100.98466337534092 75.34422312655227 41.68150036240055 H 0.0 **** 0.06
25161 C 27.547427868535607 55.55342845741592 27.690626906027838 C 0.0 **** -0.24
25162 H 27.062641098697128 56.51601788985488 27.52471992441452 H 0.0 **** 0.06
25163 H 27.8215096276993 55.11499434985361 26.73122166519881 H 0.0 **** 0.06
25164 H 26.861585043828114 54.88747381376421 28.212635200815814 H 0.0 **** 0.06
25165 H 28.44306049438933 55.69790288574114 28.293849909040613 H 0.0 **** 0.06
25166 C 45.3533624989731 1.8265524677493659 92.67744918136313 C 0.0 **** -0.24
25167 H 44.63249082280822 1.3533945457078858 93.34461808031821 H 0.0 **** 0.06
25168 H 45.43055649160471 2.8867965478457904 92.9204231139335 H 0.0 **** 0.06
25169 H 45.02241156235557 1.7132984498261408 91.64605904131568 H 0.0 **** 0.06
25170 H 46.32740016781873 1.3531856494242902 92.801768087621 H 0.0 **** 0.06
25171 C 42.05825324471416 7.644257929964578 2.759469638460982 C 0.0 **** -0.24
25172 H 41.81036522897371 8.029699651346013 3.7483376315739294 H 0.0 **** 0.06
25173 H 43.049694364696684 7.1914824886912445 2.7843017655963784 H 0.0 **** 0.06
25174 H 42.04976454706893 8.462088035052366 2.0393206661960708 H 0.0 **** 0.06
25175 H 41.32225279632578 6.894391437019346 2.4667712235031196 H 0.0 **** 0.06
25176 C 4.533877272791045 39.56403003002572 88.14490795491838 C 0.0 **** -0.24
25177 H 5.433501732295383 39.35572282476579 88.72421327765792 H 0.0 **** 0.06
25178 H 3.6586054806448374 39.47043637368262 88.78808774689901 H 0.0 **** 0.06
25179 H 4.458284366325316 38.85114337710806 87.32303320802183 H 0.0 **** 0.06
25180 H 4.585929489078254 40.575940507638364 87.74455010664204 H 0.0 **** 0.06
25181 C 78.86532145951094 38.33835216076649 105.36930258295823 C 0.0 **** -0.24
25182 H 79.26119710871944 37.80704954936996 106.23445498831356 H 0.0 **** 0.06
25183 H 79.53097127988022 39.16179486196153 105.11318526766993 H 0.0 **** 0.06
25184 H 77.87555368005427 38.72976012452726 105.60465394120135 H 0.0 **** 0.06
25185 H 78.7926180320061 37.65278759894373 104.52471737483489 H 0.0 **** 0.06
25186 C 96.2022666298908 73.06442544573741 106.03376993686607 C 0.0 **** -0.24
25187 H 95.18677702287032 72.97148546851281 106.4204723877068 H 0.0 **** 0.06
25188 H 96.19164572512747 73.67062716401618 105.12749877541135 H 0.0 **** 0.06
25189 H 96.59521865914309 72.07474838815415 105.80496074726321 H 0.0 **** 0.06
25190 H 96.83287670242366 73.54173716515545 106.7834526293163 H 0.0 **** 0.06
25191 C 2.1016543230309708 32.68835028475846 1.647314672534094 C 0.0 **** -0.24
25192 H 1.4256557504079979 33.42523259898431 2.081809922381126 H 0.0 **** 0.06
25193 H 1.5923890149335307 32.15793683984435 0.8424046451368667 H 0.0 **** 0.06
25194 H 2.40599980038769 31.977210415727797 2.4160003534109933 H 0.0 **** 0.06
25195 H 2.981822667256324 33.193241751038244 1.250589390095513 H 0.0 **** 0.06
25196 C 32.83707205594146 93.49495084596352 70.09376611957691 C 0.0 **** -0.24
25197 H 33.03931258652426 94.36500303725552 70.71898023562159 H 0.0 **** 0.06
25198 H 31.93646362930366 93.67157582210632 69.50627675266333 H 0.0 **** 0.06
25199 H 32.69334299199289 92.61874198230419 70.72668059336507 H 0.0 **** 0.06
25200 H 33.68092026698935 93.32536986638172 69.42459183755898 H 0.0 **** 0.06
25201 C 58.56436130802996 32.77702783445565 59.542240012945435 C 0.0 **** -0.24
25202 H 58.3505146667502 33.12631378232243 58.53187143183498 H 0.0 **** 0.06
25203 H 58.04788413136362 31.832962398807553 59.71710427091918 H 0.0 **** 0.06
25204 H 58.219991708125065 33.5192526792913 60.26380266406731 H 0.0 **** 0.06
25205 H 59.63804048392089 32.6314813436729 59.6567865406204 H 0.0 **** 0.06
25206 C 43.44370740803872 22.95532200737358 40.107193817739756 C 0.0 **** -0.24
25207 H 43.09158785329102 22.381984240963334 39.25072651170342 H 0.0 **** 0.06
25208 H 44.47149584819028 23.275450296147483 39.93236656632689 H 0.0 **** 0.06
25209 H 43.40389059897888 22.333201695913345 41.00192098037218 H 0.0 **** 0.06
25210 H 42.80886754670041 23.830168484987496 40.244622562015024 H 0.0 **** 0.06
25211 C 74.31467485698946 96.86268762494416 61.92871245138505 C 0.0 **** -0.24
25212 H 74.21328316953984 95.78591540947963 62.06708898182973 H 0.0 **** 0.06
25213 H 75.3600512510287 97.10612064018409 61.73368075773767 H 0.0 **** 0.06
25214 H 73.98304223228558 97.37787161772678 62.83008471200925 H 0.0 **** 0.06
25215 H 73.70411209032844 97.17869706802111 61.08251396718174 H 0.0 **** 0.06
25216 C 105.95790777160437 26.173416750336898 24.21829961145528 C 0.0 **** -0.24
25217 H 106.14637346710138 25.29690834261457 23.598650207414238 H 0.0 **** 0.06
25218 H 105.65951863724148 27.009283017610315 23.583707363223567 H 0.0 **** 0.06
25219 H 106.86536997236118 26.43550394542366 24.762718921502298 H 0.0 **** 0.06
25220 H 105.15992774490509 25.951569244196463 24.926496082744933 H 0.0 **** 0.06
25221 C 98.03125898808506 4.3328673432460505 34.29381459421265 C 0.0 **** -0.24
25222 H 98.49752146250103 5.245927912862413 33.922739885457304 H 0.0 **** 0.06
25223 H 97.22314776423855 4.5909029447769 34.97903618899551 H 0.0 **** 0.06
25224 H 98.77519843183319 3.7334205955438904 34.81826706636832 H 0.0 **** 0.06
25225 H 97.6304423654216 3.762763959928634 33.45620857966745 H 0.0 **** 0.06
25226 C 67.93268487553757 40.92042134852736 31.646198794363812 C 0.0 **** -0.24
25227 H 67.00186910614052 40.427544536615194 31.36568648487153 H 0.0 **** 0.06
25228 H 68.56157557435044 41.03924457277352 30.764293354811173 H 0.0 **** 0.06
25229 H 68.45569104924185 40.31580912976104 32.38740411793265 H 0.0 **** 0.06
25230 H 67.71102389661525 41.90014322966987 32.06954399421815 H 0.0 **** 0.06
25231 C 106.34671818167658 84.20173511265982 24.88348569372965 C 0.0 **** -0.24
25232 H 105.72625394459314 83.52054491582696 24.29981727292467 H 0.0 **** 0.06
25233 H 105.79159299773181 85.11790772813889 25.082805631234205 H 0.0 **** 0.06
25234 H 107.25098600756789 84.43818849992874 24.323338241259936 H 0.0 **** 0.06
25235 H 106.6177405287404 83.72762344872847 25.82711525610892 H 0.0 **** 0.06
25236 C 13.159898858108132 25.204711161117274 47.173340696439794 C 0.0 **** -0.24
25237 H 12.75397207012199 25.816191363253353 47.97882631663046 H 0.0 **** 0.06
25238 H 13.660747235849865 24.33285148733526 47.597194959004554 H 0.0 **** 0.06
25239 H 13.876369367691805 25.79082599651352 46.59840149594223 H 0.0 **** 0.06
25240 H 12.350653924596843 24.87807839763039 46.52169409320109 H 0.0 **** 0.06
25241 C 57.60071417435279 53.21693315400915 46.73867438031567 C 0.0 **** -0.24
25242 H 57.60041182578277 54.00500382462608 47.49153308048329 H 0.0 **** 0.06
25243 H 56.62938241276527 52.72041456855319 46.7329559789049 H 0.0 **** 0.06
25244 H 58.37849406801729 52.49035085445026 46.974149041118494 H 0.0 **** 0.06
25245 H 57.79311106403952 53.652006122009425 45.75802783305949 H 0.0 **** 0.06
25246 C 16.613682900839223 25.254452883836393 48.998098083345326 C 0.0 **** -0.24
25247 H 16.44417390477423 25.910413140451055 49.851379105847286 H 0.0 **** 0.06
25248 H 17.054054514104706 25.827639867518812 48.1819588476684 H 0.0 **** 0.06
25249 H 15.6646277662839 24.82891885870154 48.67202469807751 H 0.0 **** 0.06
25250 H 17.29188454973223 24.452077130965023 49.286345068182754 H 0.0 **** 0.06
25251 C 105.39627139426617 53.00048504669805 42.74327871886169 C 0.0 **** -0.24
25252 H 106.35557105391887 53.48930575226021 42.573242873849665 H 0.0 **** 0.06
25253 H 105.53879567391682 51.91976045872178 42.771597387031505 H 0.0 **** 0.06
25254 H 104.7100102833811 53.25507573772212 41.935969021061 H 0.0 **** 0.06
25255 H 104.98051288966744 53.33734634847364 43.69363133808963 H 0.0 **** 0.06
25256 C 106.42969470893735 98.17764508157627 96.61781725336921 C 0.0 **** -0.24
25257 H 106.01221415802544 98.74826146612375 95.78815307751341 H 0.0 **** 0.06
25258 H 105.66719226714167 97.50835000255427 97.01801582434412 H 0.0 **** 0.06
25259 H 106.76037732073729 98.86218177494764 97.39877962188173 H 0.0 **** 0.06
25260 H 107.27825045185782 97.5914999679592 96.26423163606964 H 0.0 **** 0.06
25261 C 43.52133259868663 16.315309474822726 93.67248303272322 C 0.0 **** -0.24
25262 H 43.889356456475696 17.24310042605194 93.23355919590765 H 0.0 **** 0.06
25263 H 43.062130834871084 16.527192097677556 94.63806016655573 H 0.0 **** 0.06
25264 H 44.352831002149344 15.623746796639324 93.80846529687702 H 0.0 **** 0.06
25265 H 42.781532352960994 15.868400384825264 93.00777738048745 H 0.0 **** 0.06
25266 C 29.028511927046083 88.08287160325158 87.55402581060716 C 0.0 **** -0.24
25267 H 28.144900257345967 88.23488115736109 86.93469941082357 H 0.0 **** 0.06
25268 H 29.30770048561581 89.02523859366404 88.02454135599486 H 0.0 **** 0.06
25269 H 29.850913025355396 87.7276442987575 86.9329479487278 H 0.0 **** 0.06
25270 H 28.808824285518625 87.34298532110476 88.32464530394596 H 0.0 **** 0.06
25271 C 84.47319548121949 19.38540183298518 61.8229694153373 C 0.0 **** -0.24
25272 H 84.43416882747101 18.562785389473675 61.108829499291744 H 0.0 **** 0.06
25273 H 83.72834251051692 19.224515679746304 62.602511215102425 H 0.0 **** 0.06
25274 H 84.26339601880991 20.323227930863567 61.307501515859656 H 0.0 **** 0.06
25275 H 85.46480464683746 19.431164780499145 62.27172843875826 H 0.0 **** 0.06
25276 C 77.17908000133153 71.98003709804996 23.187883252281523 C 0.0 **** -0.24
25277 H 77.14938819244847 70.92046068539338 22.932317280146634 H 0.0 **** 0.06
25278 H 78.21550748358837 72.32001973975446 23.206286431694195 H 0.0 **** 0.06
25279 H 76.72947308229035 72.13000068707728 24.16905459926295 H 0.0 **** 0.06
25280 H 76.62304374269522 72.54858064479285 22.44225423285019 H 0.0 **** 0.06
25281 C 82.35231633425403 34.986049374861096 106.76771794689418 C 0.0 **** -0.24
25282 H 82.41894001909216 33.977833411311394 107.17617546938968 H 0.0 **** 0.06
25283 H 82.10100671785014 35.68554098535748 107.56622828566682 H 0.0 **** 0.06
25284 H 81.57933061985369 35.01779678598159 105.99977790943706 H 0.0 **** 0.06
25285 H 83.31135593846767 35.26376023438033 106.32945836350981 H 0.0 **** 0.06
25286 C 56.435098922287615 89.59401483526904 51.77408807558797 C 0.0 **** -0.24
25287 H 55.654058767240656 88.84403627395653 51.902984108266025 H 0.0 **** 0.06
25288 H 56.341020498353494 90.35281504151243 52.552169879531505 H 0.0 **** 0.06
25289 H 56.330524709986385 90.06242318309626 50.795938027885626 H 0.0 **** 0.06
25290 H 57.41223425154358 89.1179176519426 51.846735614176595 H 0.0 **** 0.06
25291 C 2.477304601107348 30.60525268265576 33.192235721998834 C 0.0 **** -0.24
25292 H 1.4444771961941631 30.375923099176134 32.93070908188537 H 0.0 **** 0.06
25293 H 2.786213656687008 29.980854363256867 34.03060714579966 H 0.0 **** 0.06
25294 H 2.555514733785845 31.655738258158664 33.47342776643091 H 0.0 **** 0.06
25295 H 3.1215498618886235 30.4100199091817 32.33493010720899 H 0.0 **** 0.06
25296 C 103.00162399310918 21.277637466515714 89.3617694107875 C 0.0 **** -0.24
25297 H 102.31034316029142 21.673035409353943 88.6174495939807 H 0.0 **** 0.06
25298 H 103.04885590255336 21.95963756451195 90.21136270713592 H 0.0 **** 0.06
25299 H 103.99287389195325 21.178442262820695 88.9197652906756 H 0.0 **** 0.06
25300 H 102.65366710879032 20.300750844449027 89.6976655947445 H 0.0 **** 0.06
25301 C 39.19571029035734 44.1501864389262 98.57292798538063 C 0.0 **** -0.24
25302 H 38.39829325297961 44.688627479793354 99.08608397356645 H 0.0 **** 0.06
25303 H 39.798566060870485 44.85457635897211 97.99907477693463 H 0.0 **** 0.06
25304 H 38.75905229878239 43.411225286233844 97.90058138440574 H 0.0 **** 0.06
25305 H 39.82455408298037 43.646355284150275 99.30780376799561 H 0.0 **** 0.06
25306 C 87.96764218312732 90.49605794614592 63.47912923798637 C 0.0 **** -0.24
25307 H 88.20498804862707 91.30637392596395 64.1680186580951 H 0.0 **** 0.06
25308 H 87.9154567302494 90.88726584154404 62.463189397709044 H 0.0 **** 0.06
25309 H 87.00650283528356 90.05894043772668 63.75084999962641 H 0.0 **** 0.06
25310 H 88.742257769676 89.73242774639891 63.53605234414374 H 0.0 **** 0.06
25311 C 56.31215463960581 83.77572675268254 74.99239309840885 C 0.0 **** -0.24
25312 H 55.94023968180613 83.29880353675122 75.8991478678642 H 0.0 **** 0.06
25313 H 56.70016511487745 83.0146119885012 74.31494795282384 H 0.0 **** 0.06
25314 H 57.10719456579483 84.47411751194915 75.24964875811338 H 0.0 **** 0.06
25315 H 55.49837537331143 84.31392271628175 74.50487675502302 H 0.0 **** 0.06
25316 C 70.3519621631441 98.51620064930852 79.99471502999644 C 0.0 **** -0.24
25317 H 70.52618892291838 99.23262197328867 79.19191105001168 H 0.0 **** 0.06
25318 H 70.38180978885975 99.03220697287821 80.95447036803212 H 0.0 **** 0.06
25319 H 71.12538652708196 97.74809781408844 79.96996576239248 H 0.0 **** 0.06
25320 H 69.37514542483754 98.05104680154744 79.86159225872508 H 0.0 **** 0.06
25321 C 41.87963879532316 1.1584549483359146 49.065132364478984 C 0.0 **** -0.24
25322 H 41.50853361098831 0.14668844269067982 49.22986611045252 H 0.0 **** 0.06
25323 H 41.603466955754214 1.4894167877476976 48.06389858002797 H 0.0 **** 0.06
25324 H 42.965040133962475 1.1679654835055313 49.16465216414616 H 0.0 **** 0.06
25325 H 41.44175448218709 1.8296522702929483 49.803825251931926 H 0.0 **** 0.06
25326 C 36.73182492613916 24.87913179373487 96.41766254162751 C 0.0 **** -0.24
25327 H 36.945507389886565 25.845332458159476 96.8733353737823 H 0.0 **** 0.06
25328 H 36.668866690755905 24.117555680732522 97.1956335195829 H 0.0 **** 0.06
25329 H 37.529062280770596 24.621738218314192 95.72041878963313 H 0.0 **** 0.06
25330 H 35.78340109503703 24.93131446559198 95.88246357049901 H 0.0 **** 0.06
25331 C 17.97057712665361 101.8839101957391 7.500137368391904 C 0.0 **** -0.24
25332 H 18.58441482626091 100.98659368396522 7.568912357270619 H 0.0 **** 0.06
25333 H 17.73447820315579 102.08397740307325 6.454754117687969 H 0.0 **** 0.06
25334 H 18.517121095286825 102.73001443325083 7.917277680749066 H 0.0 **** 0.06
25335 H 17.04697466881197 101.73628838930014 8.059734548410347 H 0.0 **** 0.06
25336 C 93.94776702305818 25.67400108384686 97.61443630241351 C 0.0 **** -0.24
25337 H 93.52320312231726 26.42155991151793 96.94466620628654 H 0.0 **** 0.06
25338 H 94.50371525136607 26.17230408473523 98.40822428766037 H 0.0 **** 0.06
25339 H 94.61776961642674 25.022659452559168 97.05370527338059 H 0.0 **** 0.06
25340 H 93.14468939795285 25.07985604783019 98.05117963482147 H 0.0 **** 0.06
25341 C 69.49039426450716 27.814919619308483 33.47662035615423 C 0.0 **** -0.24
25342 H 69.69444054173016 28.8787038591706 33.35816412686012 H 0.0 **** 0.06
25343 H 69.67334258560624 27.302732549070043 32.53242864502042 H 0.0 **** 0.06
25344 H 68.44967667783317 27.675379134917335 33.770143939090644 H 0.0 **** 0.06
25345 H 70.14321315707261 27.403213953720723 34.246774028036214 H 0.0 **** 0.06
25346 C 57.96388409033466 2.328778588475643 65.7897255718793 C 0.0 **** -0.24
25347 H 57.27329649073238 2.1472517550490693 66.61396008645156 H 0.0 **** 0.06
25348 H 58.078787109671396 3.402738984701813 65.64255873585773 H 0.0 **** 0.06
25349 H 57.5693068554192 1.877168248120654 64.87927258854543 H 0.0 **** 0.06
25350 H 58.932567768596016 1.8872850824159855 66.02286523081412 H 0.0 **** 0.06
25351 C 5.761741201778676 90.57701462418646 83.15978423549781 C 0.0 **** -0.24
25352 H 5.9707334351601276 89.7175325107618 83.79713851187982 H 0.0 **** 0.06
25353 H 4.691279129669596 90.78253082721272 83.16523879221587 H 0.0 **** 0.06
25354 H 6.0852990308576125 90.35976506636642 82.14089819857432 H 0.0 **** 0.06
25355 H 6.3019068904953315 91.4467228184129 83.53423370584972 H 0.0 **** 0.06
25356 C 41.141898308118414 27.453298406478467 70.84589400045824 C 0.0 **** -0.24
25357 H 40.30179203801376 27.975856249822584 70.38943981786855 H 0.0 **** 0.06
25358 H 41.65762027011817 28.12597386531087 71.53291758152919 H 0.0 **** 0.06
25359 H 41.833023323630925 27.128048211776132 70.06915390909104 H 0.0 **** 0.06
25360 H 40.7755690271386 26.58536123617867 71.39397394391894 H 0.0 **** 0.06
25361 C 12.769345114744254 75.47549718899074 50.47781427489559 C 0.0 **** -0.24
25362 H 13.231322132329325 74.717629585261 51.10993024793056 H 0.0 **** 0.06
25363 H 11.774758348968817 75.14288875520839 50.17899066546632 H 0.0 **** 0.06
25364 H 13.381926266694705 75.63026373014904 49.58970653933122 H 0.0 **** 0.06
25365 H 12.689437012190808 76.41121348156602 51.03089872660384 H 0.0 **** 0.06
25366 C 66.33626305409774 21.033593247424818 62.948034740536144 C 0.0 **** -0.24
25367 H 66.35957919875199 20.782041836102835 61.88781120627212 H 0.0 **** 0.06
25368 H 65.9251684572261 20.196032956703675 63.511756043688564 H 0.0 **** 0.06
25369 H 65.71297898927241 21.915323693493292 63.09859743585568 H 0.0 **** 0.06
25370 H 67.34955872259616 21.241083776439325 63.2940106661446 H 0.0 **** 0.06
25371 C 78.66480046122653 105.98025103035107 64.15614242405849 C 0.0 **** -0.24
25372 H 77.81363702537028 106.48770079262582 64.60966665882647 H 0.0 **** 0.06
25373 H 78.44867560252023 104.9148476057794 64.06916338336181 H 0.0 **** 0.06
25374 H 79.54717745130144 106.12275739872281 64.78062503008806 H 0.0 **** 0.06
25375 H 78.85010752680417 106.39582063634246 63.16602482117091 H 0.0 **** 0.06
25376 C 9.28593647394295 11.987113712270485 18.994628735186723 C 0.0 **** -0.24
25377 H 9.455344473650294 13.060372218556864 19.08554545503489 H 0.0 **** 0.06
25378 H 8.244919768109087 11.763131275632048 19.225965634974827 H 0.0 **** 0.06
25379 H 9.936245774125846 11.457349676198902 19.690110976575113 H 0.0 **** 0.06
25380 H 9.508083435218182 11.670799037822576 17.975143820350098 H 0.0 **** 0.06
25381 C 24.321644136632386 94.65135998459327 0.26315605144202436 C 0.0 **** -0.24
25382 H 24.79685284139981 94.65259592607167 -0.7176104087168653 H 0.0 **** 0.06
25383 H 25.04377779881918 94.96811091532861 1.016940912292256 H 0.0 **** 0.06
25384 H 23.970776342033105 93.6462193225764 0.4954483545328685 H 0.0 **** 0.06
25385 H 23.47619311899311 95.33946910974163 0.2580447523206999 H 0.0 **** 0.06
25386 C 59.69613573286426 0.3907615582063215 24.608701260226084 C 0.0 **** -0.24
25387 H 59.37283452860455 0.5047884541648671 25.643784804393064 H 0.0 **** 0.06
25388 H 60.14057069118827 1.3243839463445255 24.262095479838166 H 0.0 **** 0.06
25389 H 58.83664506836778 0.1431373749651641 23.984695787757516 H 0.0 **** 0.06
25390 H 60.43396527122353 -0.40850132565303454 24.54529714307921 H 0.0 **** 0.06
25391 C 104.89568848681819 51.17301827085811 76.91515559328946 C 0.0 **** -0.24
25392 H 104.80115589451114 52.07729535348727 77.51601184457985 H 0.0 **** 0.06
25393 H 105.66306272160675 51.32047933272628 76.15463421446844 H 0.0 **** 0.06
25394 H 103.94247352309864 50.95633238598572 76.4338291675673 H 0.0 **** 0.06
25395 H 105.1765464414652 50.33774743580341 77.5577956286881 H 0.0 **** 0.06
25396 C 3.5202978959679854 27.428917643377762 6.854842087305727 C 0.0 **** -0.24
25397 H 4.5807837748292854 27.177412010730148 6.885474716319905 H 0.0 **** 0.06
25398 H 2.9289919187164344 26.515835248855932 6.922713165002293 H 0.0 **** 0.06
25399 H 3.296007701914675 27.9391827950889 5.9180619118588 H 0.0 **** 0.06
25400 H 3.2785579518790655 28.083129917018493 7.692859292050258 H 0.0 **** 0.06
25401 C 31.843392445148652 101.27886133880678 65.13826092938564 C 0.0 **** -0.24
25402 H 32.29590047301164 100.7999624852221 66.00564204762844 H 0.0 **** 0.06
25403 H 32.4090328813607 101.01994562099348 64.24229311139203 H 0.0 **** 0.06
25404 H 31.853450389333233 102.3610195182524 65.27408909072409 H 0.0 **** 0.06
25405 H 30.813363223984396 100.93685732176549 65.03056771402743 H 0.0 **** 0.06
25406 C 92.78041266362905 68.31294426839028 50.5801591710038 C 0.0 **** -0.24
25407 H 93.81935318117466 68.64176754290088 50.60729898683877 H 0.0 **** 0.06
25408 H 92.74266034583667 67.25145172867929 50.33710975354171 H 0.0 **** 0.06
25409 H 92.24034260102842 68.88011469985 49.82221872218264 H 0.0 **** 0.06
25410 H 92.32122310263449 68.48079341868294 51.554879317187215 H 0.0 **** 0.06
25411 C 106.54025138354504 16.400057633686487 46.776502851038344 C 0.0 **** -0.24
25412 H 106.30650662862836 16.948246280294242 45.86423245718919 H 0.0 **** 0.06
25413 H 106.10439946430098 15.401791431968832 46.721262747018386 H 0.0 **** 0.06
25414 H 106.12599933326561 16.929792920904916 47.63515326660411 H 0.0 **** 0.06
25415 H 107.62139840081407 16.31956983080829 46.88547306626896 H 0.0 **** 0.06
25416 C 69.55740616906002 12.020154922995507 7.272892872634884 C 0.0 **** -0.24
25417 H 70.02498312512347 11.868197598461185 8.244919311408466 H 0.0 **** 0.06
25418 H 68.78536817083078 12.785572204939726 7.356639267726678 H 0.0 **** 0.06
25419 H 69.10830099741165 11.085819765774406 6.93500072947478 H 0.0 **** 0.06
25420 H 70.31094700919463 12.341864977947697 6.553870925969704 H 0.0 **** 0.06
25421 C 82.10886844839558 8.27754368441387 34.00101137599068 C 0.0 **** -0.24
25422 H 81.29407355524597 8.733152175284335 33.43976114898107 H 0.0 **** 0.06
25423 H 83.01131217520475 8.268628372201448 33.39035475282747 H 0.0 **** 0.06
25424 H 81.8397819283586 7.255273866111871 34.266461110547965 H 0.0 **** 0.06
25425 H 82.2901578166331 8.8524301881222 34.909814123804054 H 0.0 **** 0.06
25426 C 4.94700175912104 98.24083024898675 94.56737724668325 C 0.0 **** -0.24
25427 H 4.537305423835678 97.89210664364403 93.61907112694875 H 0.0 **** 0.06
25428 H 6.035217245257375 98.24609724879076 94.51300832168815 H 0.0 **** 0.06
25429 H 4.625702733984118 97.57434770578588 95.3679324748667 H 0.0 **** 0.06
25430 H 4.58776037508404 99.25013299020829 94.76878310909689 H 0.0 **** 0.06
25431 C 60.46085233174594 84.97507750322137 58.571617275918925 C 0.0 **** -0.24
25432 H 60.05418151290522 84.38830258510211 59.39619402636805 H 0.0 **** 0.06
25433 H 59.82847995116899 85.8458907233998 58.39893197889121 H 0.0 **** 0.06
25434 H 60.490467902918084 84.36228948744525 57.6710327755147 H 0.0 **** 0.06
25435 H 61.46987855147054 85.3026017238117 58.82282774344296 H 0.0 **** 0.06
25436 C 80.37698465235016 60.15445410795583 19.43630811144027 C 0.0 **** -0.24
25437 H 80.55080955051713 60.862078103902604 20.247822718137897 H 0.0 **** 0.06
25438 H 81.24587271199019 60.135517116942374 18.778653471736277 H 0.0 **** 0.06
25439 H 79.49774215629182 60.460322188350816 18.870349628972804 H 0.0 **** 0.06
25440 H 80.21359504668939 59.15962130007902 19.852000640145107 H 0.0 **** 0.06
25441 C 43.25695240268695 29.538290915504206 96.62640054102722 C 0.0 **** -0.24
25442 H 44.23665297636761 29.18404609618392 96.30382782226394 H 0.0 **** 0.06
25443 H 43.00616605932896 30.453158384948892 96.08972985904627 H 0.0 **** 0.06
25444 H 43.27961841402712 29.739764271444926 97.69806957298914 H 0.0 **** 0.06
25445 H 42.50798894504001 28.775104119586445 96.41537600916185 H 0.0 **** 0.06
25446 C 102.99530928821586 27.78262749424104 86.04095282864284 C 0.0 **** -0.24
25447 H 102.63256799247779 27.07725477153363 86.78836755017005 H 0.0 **** 0.06
25448 H 102.2072036956151 28.49635776732657 85.80266237000546 H 0.0 **** 0.06
25449 H 103.27944748551295 27.240577034133167 85.13850586041792 H 0.0 **** 0.06
25450 H 103.8616137449814 28.314328425749608 86.4333434139977 H 0.0 **** 0.06
25451 C 22.185570017224663 20.760148968670748 3.005105122616854 C 0.0 **** -0.24
25452 H 21.257157378574732 20.310542798546308 2.6523658552984415 H 0.0 **** 0.06
25453 H 22.570769678643614 21.440485090810412 2.244315547181685 H 0.0 **** 0.06
25454 H 22.918326632658065 19.976696935636326 3.197254389953855 H 0.0 **** 0.06
25455 H 21.993802820598574 21.31317182575546 3.9238454037580652 H 0.0 **** 0.06
25456 C 57.029063554741164 16.543651811395577 65.68457984109637 C 0.0 **** -0.24
25457 H 56.944683758743984 15.487543743246988 65.94237926792107 H 0.0 **** 0.06
25458 H 57.63181905901636 17.054076382028 66.43497188083444 H 0.0 **** 0.06
25459 H 56.034697699288024 16.990224779667415 65.65244125965182 H 0.0 **** 0.06
25460 H 57.50344369374682 16.642592918141958 64.70791107623728 H 0.0 **** 0.06
25461 C 21.09182081720033 48.68291996973204 2.310851086523236 C 0.0 **** -0.24
25462 H 22.0003391846449 48.20569435483523 1.945093322805393 H 0.0 **** 0.06
25463 H 21.062607117671604 49.71804185881061 1.9701019744883288 H 0.0 **** 0.06
25464 H 21.0826746649538 48.65797953681144 3.4007088974692046 H 0.0 **** 0.06
25465 H 20.221393194120793 48.149572895710776 1.9288322963017288 H 0.0 **** 0.06
25466 C 38.47906404491857 56.134723822068395 68.83519214020502 C 0.0 **** -0.24
25467 H 37.46218552141295 55.74627224947119 68.88636954018978 H 0.0 **** 0.06
25468 H 38.50104234410401 57.14792838973733 69.23720481701145 H 0.0 **** 0.06
25469 H 38.81064407915511 56.14843790549514 67.79654333048123 H 0.0 **** 0.06
25470 H 39.141827911311736 55.497234599548506 69.41979390538272 H 0.0 **** 0.06
25471 C 34.02648940150863 84.91425383642395 23.756744109323307 C 0.0 **** -0.24
25472 H 34.892894884060695 84.81521185761552 24.411834181721673 H 0.0 **** 0.06
25473 H 33.15863532644494 85.21134542723304 24.346009435267746 H 0.0 **** 0.06
25474 H 33.82789735080132 83.95797121519745 23.271328288228915 H 0.0 **** 0.06
25475 H 34.22868145524615 85.67095623886931 22.998818950158096 H 0.0 **** 0.06
25476 C 104.55778801211056 14.057134048266619 15.42721177089527 C 0.0 **** -0.24
25477 H 104.26255004294654 14.601486713890438 14.53040888976605 H 0.0 **** 0.06
25478 H 104.98229567707153 13.094035715757911 15.143314670593611 H 0.0 **** 0.06
25479 H 103.68514397980721 13.897644071625564 16.05957716285002 H 0.0 **** 0.06
25480 H 105.30259916090438 14.635712837053916 15.973867654911686 H 0.0 **** 0.06
25481 C 7.955036471491127 25.788571073621597 29.335603711680506 C 0.0 **** -0.24
25482 H 7.478326329859897 25.215004193809534 28.540184186943776 H 0.0 **** 0.06
25483 H 7.220699479405482 26.45157384542881 29.79463778437639 H 0.0 **** 0.06
25484 H 8.76827316007504 26.38138322472176 28.91801479210733 H 0.0 **** 0.06
25485 H 8.350447463459687 25.10699084977358 30.087905643042035 H 0.0 **** 0.06
25486 C 57.96152853467666 75.35398997131541 66.94610265861198 C 0.0 **** -0.24
25487 H 58.96551179198423 75.38613021508674 67.37019270362809 H 0.0 **** 0.06
25488 H 57.24721348115108 75.0824434119438 67.72396975638182 H 0.0 **** 0.06
25489 H 57.929104887941605 74.61216048216633 66.14807920777187 H 0.0 **** 0.06
25490 H 57.706065249516314 76.33358062773407 66.54182135520969 H 0.0 **** 0.06
25491 C 87.6895593746007 4.853616592372191 50.06222129963476 C 0.0 **** -0.24
25492 H 88.25739687596923 5.675381423653562 50.498870878889676 H 0.0 **** 0.06
25493 H 87.05300609786254 4.404864276857893 50.82607277867797 H 0.0 **** 0.06
25494 H 88.37690603186017 4.10212128227397 49.67369449126559 H 0.0 **** 0.06
25495 H 87.06900506105136 5.23289887314408 49.24895805460528 H 0.0 **** 0.06
25496 C 32.79616074063887 68.8529038527135 5.475738777770971 C 0.0 **** -0.24
25497 H 32.02643340806458 69.28615309324869 6.1144434337260805 H 0.0 **** 0.06
25498 H 32.3757471970207 68.64154244938891 4.492480153529016 H 0.0 **** 0.06
25499 H 33.16114220224415 67.92773246115422 5.923131437485949 H 0.0 **** 0.06
25500 H 33.6223965997699 69.55677374141317 5.373605473661883 H 0.0 **** 0.06
25501 C 36.03284567136851 10.8964639121658 65.44294585518234 C 0.0 **** -0.24
25502 H 35.44494930146186 10.032456630809932 65.13415149831161 H 0.0 **** 0.06
25503 H 37.05061647897611 10.797837660133325 65.0644327278139 H 0.0 **** 0.06
25504 H 36.05306164813773 10.952966780622688 66.53100808629604 H 0.0 **** 0.06
25505 H 35.58197103257444 11.80453093074864 65.04091212314941 H 0.0 **** 0.06
25506 C 44.02027262649182 68.85841583498859 87.59301123956051 C 0.0 **** -0.24
25507 H 44.78917145318641 69.46286110511753 87.11322570946854 H 0.0 **** 0.06
25508 H 43.06519741974745 69.38184001111787 87.5460303933406 H 0.0 **** 0.06
25509 H 44.28949468859767 68.6871656230361 88.63533823257524 H 0.0 **** 0.06
25510 H 43.93586141701766 67.90116658907766 87.07831001705863 H 0.0 **** 0.06
25511 C 64.40729439348826 82.05567636329121 18.61098234128957 C 0.0 **** -0.24
25512 H 63.35465966558047 82.21906971441524 18.842255892106806 H 0.0 **** 0.06
25513 H 64.54491423743872 81.03814721558258 18.244557804734313 H 0.0 **** 0.06
25514 H 65.00273362702904 82.2014975632342 19.512030611655263 H 0.0 **** 0.06
25515 H 64.72575503428993 82.76366722265149 17.846370391589176 H 0.0 **** 0.06
25516 C 52.4831116648538 17.984893205249364 99.93695201253085 C 0.0 **** -0.24
25517 H 51.97890511400044 17.200213224336665 100.50182087458593 H 0.0 **** 0.06
25518 H 52.661921158635806 17.64186394556961 98.91834474877726 H 0.0 **** 0.06
25519 H 53.433889419627 18.221695769687074 100.41428827201514 H 0.0 **** 0.06
25520 H 51.85601784418625 18.876468476190325 99.91572451445356 H 0.0 **** 0.06
25521 C 104.11649892130316 105.6841682861731 41.164830200442985 C 0.0 **** -0.24
25522 H 104.17501969828632 105.56064072926215 42.24657693766081 H 0.0 **** 0.06
25523 H 104.96801423897247 106.27112492228684 40.82019664052228 H 0.0 **** 0.06
25524 H 103.19142864089622 106.2007515592717 40.90773015439888 H 0.0 **** 0.06
25525 H 104.13196013776083 104.70525564108016 40.68608530693488 H 0.0 **** 0.06
25526 C 33.66533712880647 95.44650806901018 63.56583282683525 C 0.0 **** -0.24
25527 H 34.01470746328812 96.14038807956018 62.80119198806287 H 0.0 **** 0.06
25528 H 34.17077547688015 94.48801624583433 63.4443863518548 H 0.0 **** 0.06
25529 H 32.589528745634254 95.30516042596469 63.462988938571414 H 0.0 **** 0.06
25530 H 33.88649769691159 95.85210985111287 64.55307692203434 H 0.0 **** 0.06
25531 C 49.7009383224325 2.589413549402906 0.5073751083901357 C 0.0 **** -0.24
25532 H 49.388389226617775 2.041467319329911 -0.38165341094330074 H 0.0 **** 0.06
25533 H 49.19474481891274 2.1790766301569704 1.3825428457963795 H 0.0 **** 0.06
25534 H 49.43820022414045 3.6416976236127994 0.39686426481580384 H 0.0 **** 0.06
25535 H 50.77927257453725 2.4947835703109433 0.6333913523932324 H 0.0 **** 0.06
25536 C 15.345430721627224 72.13893434438347 4.653920452904515 C 0.0 **** -0.24
25537 H 15.214312176387637 71.14474796684817 5.082428483679905 H 0.0 **** 0.06
25538 H 15.903379115197254 72.76387546167444 5.3511491757227105 H 0.0 **** 0.06
25539 H 14.368698978624309 72.58417108227928 4.466634520376303 H 0.0 **** 0.06
25540 H 15.893978252758927 72.05948355266639 3.71591627516878 H 0.0 **** 0.06
25541 C 41.14070289548881 81.7070246008708 37.0843247739482 C 0.0 **** -0.24
25542 H 42.12410743957397 82.04516299978462 37.40932721177967 H 0.0 **** 0.06
25543 H 40.392792925879135 82.45393333548091 37.35244372906175 H 0.0 **** 0.06
25544 H 40.90126974707501 80.76190558793502 37.571503917355926 H 0.0 **** 0.06
25545 H 41.143695471806524 81.5672508696633 36.00298436043113 H 0.0 **** 0.06
25546 C 43.89410642069282 71.69211673397541 84.24046914626652 C 0.0 **** -0.24
25547 H 42.835232177927764 71.47269323228488 84.1059688034616 H 0.0 **** 0.06
25548 H 44.425250931733046 71.50603637558373 83.30706928016312 H 0.0 **** 0.06
25549 H 44.30077151729509 71.05325412985707 85.02386862269242 H 0.0 **** 0.06
25550 H 44.014336873898685 72.73840981186626 84.52573963874883 H 0.0 **** 0.06
25551 C 88.30237763288545 36.60829951367543 102.18742964671233 C 0.0 **** -0.24
25552 H 89.36845071337842 36.811449747028746 102.08719559860982 H 0.0 **** 0.06
25553 H 87.73516205280202 37.37850299401657 101.6654212547007 H 0.0 **** 0.06
25554 H 88.03025500460538 36.610350421530825 103.24327092782825 H 0.0 **** 0.06
25555 H 88.07639249589812 35.63326702742853 101.75590436370902 H 0.0 **** 0.06
25556 C 27.9530003602639 58.61031264735726 36.94815757892553 C 0.0 **** -0.24
25557 H 27.31959854005146 58.81089294654379 36.08470675044427 H 0.0 **** 0.06
25558 H 28.371914897588198 57.60699139711517 36.86734413447698 H 0.0 **** 0.06
25559 H 27.360076743031925 58.68479803694554 37.85898585814766 H 0.0 **** 0.06
25560 H 28.762117316491327 59.34082423485729 36.9815842193301 H 0.0 **** 0.06
25561 C 24.098119865944 3.021440969889511 88.49176011169821 C 0.0 **** -0.24
25562 H 23.305653011617892 2.3363658859580028 88.79356490946248 H 0.0 **** 0.06
25563 H 25.03365194211443 2.7264310225449435 88.9675642704396 H 0.0 **** 0.06
25564 H 23.839027395734462 4.034438437429344 88.79643672492773 H 0.0 **** 0.06
25565 H 24.21528026923329 2.9853549749523722 87.40819193372585 H 0.0 **** 0.06
25566 C 61.15471944097243 104.56238386847848 48.48716431868915 C 0.0 **** -0.24
25567 H 60.562696792657476 103.64898679615204 48.43059865780381 H 0.0 **** 0.06
25568 H 60.802822693585824 105.27059824110333 47.735544806263555 H 0.0 **** 0.06
25569 H 62.203010442501295 104.32804165869071 48.30409772656342 H 0.0 **** 0.06
25570 H 61.04830430715592 105.0030216745945 49.47918141460565 H 0.0 **** 0.06
25571 C 37.43602740797868 34.39511933485028 95.45843375221662 C 0.0 **** -0.24
25572 H 37.738517716560786 34.95251868309754 94.57218871552843 H 0.0 **** 0.06
25573 H 36.69521139453964 33.64570051510782 95.18059071644029 H 0.0 **** 0.06
25574 H 37.00520107635397 35.079538405240555 96.18858981247624 H 0.0 **** 0.06
25575 H 38.30711521436438 33.90175201760661 95.89121833583417 H 0.0 **** 0.06
25576 C 69.15623938717587 38.375531736989004 81.07785447503781 C 0.0 **** -0.24
25577 H 69.08899010115536 37.305970379330766 80.87678786850212 H 0.0 **** 0.06
25578 H 69.03399392879444 38.92833925931189 80.14606660802436 H 0.0 **** 0.06
25579 H 70.1298016625681 38.60325270986891 81.51143877140719 H 0.0 **** 0.06
25580 H 68.37062337175104 38.662971896712904 81.77738101954303 H 0.0 **** 0.06
25581 C 24.355620505443113 66.45636782407865 67.20726374557572 C 0.0 **** -0.24
25582 H 24.130752169822983 66.74859798996826 68.23316943563597 H 0.0 **** 0.06
25583 H 23.94969563421614 65.46340654339278 67.01572896961049 H 0.0 **** 0.06
25584 H 25.43610200753548 66.44207332123526 67.06350315387245 H 0.0 **** 0.06
25585 H 23.907036811884694 67.17207288067564 66.51873152185924 H 0.0 **** 0.06
25586 C 43.59733030830574 99.04988991197675 20.748671254851985 C 0.0 **** -0.24
25587 H 43.993516317544675 99.75159365775065 21.48395575329525 H 0.0 **** 0.06
25588 H 44.29142910327636 98.96971107843639 19.912447064972 H 0.0 **** 0.06
25589 H 42.633151226290806 99.40923543925928 20.388514046609203 H 0.0 **** 0.06
25590 H 43.470551019221546 98.07167938025007 21.212312136226927 H 0.0 **** 0.06
25591 C 66.67064034295441 95.57556311475616 78.75392923788665 C 0.0 **** -0.24
25592 H 65.70835990829866 95.17690577649824 79.07555077086492 H 0.0 **** 0.06
25593 H 66.92541525578304 96.44403500478867 79.36192764259364 H 0.0 **** 0.06
25594 H 66.60945867338214 95.8698788511005 77.70564740020951 H 0.0 **** 0.06
25595 H 67.43768898782878 94.8101643922058 78.8717506204074 H 0.0 **** 0.06
25596 C 74.40054357574677 96.00943851990183 80.9704648839986 C 0.0 **** -0.24
25597 H 74.26609835571078 95.514054001038 80.00892530308869 H 0.0 **** 0.06
25598 H 75.14220505699872 95.4665870890912 81.55730244735935 H 0.0 **** 0.06
25599 H 73.45208512300565 96.02366531981073 81.50620064756009 H 0.0 **** 0.06
25600 H 74.7417664573971 97.0315070793032 80.80793647666843 H 0.0 **** 0.06
25601 C 17.60877094176564 102.99666161248052 47.977710671340056 C 0.0 **** -0.24
25602 H 17.268838295446756 103.98708024982093 47.67539723193302 H 0.0 **** 0.06
25603 H 18.43255168227637 102.6841521671684 47.33544368885484 H 0.0 **** 0.06
25604 H 16.786201188198874 102.28685922992224 47.88594836745924 H 0.0 **** 0.06
25605 H 17.947032604248506 103.02867884252282 49.013174157039934 H 0.0 **** 0.06
25606 C 69.22821494332072 57.826877627287956 58.581288376696065 C 0.0 **** -0.24
25607 H 68.60592676544383 56.99175437025099 58.903765201269856 H 0.0 **** 0.06
25608 H 69.72248496296176 57.56908878144901 57.6444048275725 H 0.0 **** 0.06
25609 H 69.97991800435803 58.03526201873774 59.34292554907372 H 0.0 **** 0.06
25610 H 68.60502345400293 58.70852794324176 58.433366876872434 H 0.0 **** 0.06
25611 C 21.9927657369534 102.67995044684409 18.522585912894918 C 0.0 **** -0.24
25612 H 21.065711762336463 103.19432942991773 18.26941818692442 H 0.0 **** 0.06
25613 H 21.84216582010498 102.08118293132713 19.421191978972193 H 0.0 **** 0.06
25614 H 22.777916246098243 103.41440679347687 18.702325347489932 H 0.0 **** 0.06
25615 H 22.284404919795577 102.03024945656483 17.69706368859109 H 0.0 **** 0.06
25616 C 57.42648230892276 97.60530208102824 25.517057938483703 C 0.0 **** -0.24
25617 H 57.11158300660877 97.88861620809638 26.52101023185412 H 0.0 **** 0.06
25618 H 56.59450867785066 97.7347658669367 24.825001074828208 H 0.0 **** 0.06
25619 H 57.74278880728026 96.5624873065957 25.5159509253252 H 0.0 **** 0.06
25620 H 58.259851818048666 98.23706621966511 25.206669266438723 H 0.0 **** 0.06
25621 C 94.29282513137107 83.50572291426874 25.411355644587616 C 0.0 **** -0.24
25622 H 95.37811027401611 83.56582188407334 25.497871648012193 H 0.0 **** 0.06
25623 H 93.83524978010858 84.27428872474624 26.03590443651632 H 0.0 **** 0.06
25624 H 93.95655539653028 82.52229178488061 25.737960191971865 H 0.0 **** 0.06
25625 H 94.00310721509321 83.66187731198626 24.37165948947677 H 0.0 **** 0.06
25626 C 54.961353536734265 58.464332621126914 97.93004196989818 C 0.0 **** -0.24
25627 H 54.11938042328287 58.64013985235863 97.2609965522812 H 0.0 **** 0.06
25628 H 55.63722897161071 57.7360765900915 97.47952188094878 H 0.0 **** 0.06
25629 H 54.59509783709524 58.08045181758462 98.88207400078828 H 0.0 **** 0.06
25630 H 55.49468791712963 59.400395744455125 98.0965922288043 H 0.0 **** 0.06
25631 C 31.75378562531145 14.165578629840695 102.48835254248961 C 0.0 **** -0.24
25632 H 31.445282744534865 13.180370345756998 102.1406065807566 H 0.0 **** 0.06
25633 H 32.1747745146875 14.728884825761952 101.65573607748317 H 0.0 **** 0.06
25634 H 32.50543882416417 14.056163420998246 103.27076517979872 H 0.0 **** 0.06
25635 H 30.88964641785924 14.696895926845485 102.8863023319195 H 0.0 **** 0.06
25636 C 23.36155336145326 22.22358208692212 96.54777303469865 C 0.0 **** -0.24
25637 H 22.807033325290575 23.160988734331525 96.50668769218396 H 0.0 **** 0.06
25638 H 24.105630770038488 22.206112041578237 95.75223091962732 H 0.0 **** 0.06
25639 H 22.67262817647955 21.388114315734725 96.41977130887585 H 0.0 **** 0.06
25640 H 23.859269027736573 22.13793911768252 97.513777750043 H 0.0 **** 0.06
25641 C 3.944241497109144 1.4043429233973796 100.00292916336835 C 0.0 **** -0.24
25642 H 4.860969643135535 1.6703008315996613 99.4758507602974 H 0.0 **** 0.06
25643 H 3.176941203707506 2.1503876581530363 99.79597693824283 H 0.0 **** 0.06
25644 H 4.139410902973434 1.3717721030684515 101.07564246762931 H 0.0 **** 0.06
25645 H 3.6017415253626766 0.42621693578524855 99.66562364074895 H 0.0 **** 0.06
25646 C 35.20238523205457 47.65840768523583 71.03493813788027 C 0.0 **** -0.24
25647 H 34.13999265426741 47.452219823207216 70.9009816857715 H 0.0 **** 0.06
25648 H 35.758036329100726 46.72079964755388 71.02112760667829 H 0.0 **** 0.06
25649 H 35.35735669901572 48.15899646283531 71.99067681798047 H 0.0 **** 0.06
25650 H 35.55175845741406 48.30147887785272 70.22745347777163 H 0.0 **** 0.06
25651 C 23.602993320829977 28.495952567534246 63.8314630643702 C 0.0 **** -0.24
25652 H 23.97288651690631 27.92201967641272 64.6807449607366 H 0.0 **** 0.06
25653 H 23.595570699629636 27.864613229810647 62.942583836098024 H 0.0 **** 0.06
25654 H 24.254334795642855 29.35383964443197 63.661428359215364 H 0.0 **** 0.06
25655 H 22.59149333301601 28.844075787172457 64.03964251946879 H 0.0 **** 0.06
25656 C 83.2406822069492 82.17677088770361 106.97164336173148 C 0.0 **** -0.24
25657 H 83.9999846458663 81.41842488242324 107.16232593712175 H 0.0 **** 0.06
25658 H 83.12356845283617 82.3099804517635 105.89570082868147 H 0.0 **** 0.06
25659 H 83.54901196009573 83.12004592699961 107.4228336595965 H 0.0 **** 0.06
25660 H 82.2924312505993 81.85820381181142 107.40379590171165 H 0.0 **** 0.06
25661 C 75.24654477734288 13.397277793566843 63.90218899071475 C 0.0 **** -0.24
25662 H 74.57429980546539 12.711169934505222 63.38729055817433 H 0.0 **** 0.06
25663 H 74.85140993029447 14.41075585066423 63.83589896511468 H 0.0 **** 0.06
25664 H 76.23127686653481 13.359117879328664 63.435106239180755 H 0.0 **** 0.06
25665 H 75.32992479649334 13.10661918655228 64.94985501429029 H 0.0 **** 0.06
25666 C 63.78275284219029 78.87677134093789 42.96446671248273 C 0.0 **** -0.24
25667 H 63.99575020047945 77.90925378562949 43.41928054530413 H 0.0 **** 0.06
25668 H 62.73509155698389 78.91327078472327 42.66274264142402 H 0.0 **** 0.06
25669 H 64.41803726221958 79.01497871117888 42.09008459026788 H 0.0 **** 0.06
25670 H 63.98031612255524 79.66866917445509 43.687125892937075 H 0.0 **** 0.06
25671 C 77.94249692951017 5.639892602884842 87.42897199588502 C 0.0 **** -0.24
25672 H 78.50963604731973 4.9896997859567875 86.76279917080616 H 0.0 **** 0.06
25673 H 77.32796828358893 5.031093534234245 88.09348537087234 H 0.0 **** 0.06
25674 H 77.30229898889803 6.294233118648378 86.8382760166769 H 0.0 **** 0.06
25675 H 78.63113939224233 6.242345599748319 88.02109414360413 H 0.0 **** 0.06
25676 C 24.505848602564527 71.12258561349589 46.19863489080592 C 0.0 **** -0.24
25677 H 24.071689914103075 70.20061386733771 45.811358428193245 H 0.0 **** 0.06
25678 H 24.517910048254492 71.87689059858006 45.41231231891629 H 0.0 **** 0.06
25679 H 25.525008452746363 70.93051161782464 46.53455229410622 H 0.0 **** 0.06
25680 H 23.90875589639927 71.48015040026166 47.036830797181324 H 0.0 **** 0.06
25681 C 99.41462281249682 48.786102430014495 73.21727751002501 C 0.0 **** -0.24
25682 H 98.99031681610387 48.63610329145223 72.2240839604028 H 0.0 **** 0.06
25683 H 99.08237558700816 47.985598279984 73.87827720353172 H 0.0 **** 0.06
25684 H 99.08368591285497 49.746751406586554 73.61206482627313 H 0.0 **** 0.06
25685 H 100.50295222017255 48.775352235212864 73.15122995538317 H 0.0 **** 0.06
25686 C 76.39111355287199 81.83967292542982 16.031040340873005 C 0.0 **** -0.24
25687 H 75.52397130501078 81.52698285541734 15.449827881890997 H 0.0 **** 0.06
25688 H 76.18018821250222 82.79623021106187 16.511856819223965 H 0.0 **** 0.06
25689 H 77.25190031211413 81.94771389159118 15.370697219009514 H 0.0 **** 0.06
25690 H 76.60841750607005 81.09058533869549 16.791989389163064 H 0.0 **** 0.06
25691 C 61.923318850384135 47.4027904388656 95.38978207170352 C 0.0 **** -0.24
25692 H 62.7532134600273 47.289860906628086 94.69352818159389 H 0.0 **** 0.06
25693 H 61.47255770065087 46.4273417454156 95.57823905955688 H 0.0 **** 0.06
25694 H 61.17730964474475 48.07152382148468 94.96028278183093 H 0.0 **** 0.06
25695 H 62.28927602162574 47.821547967422326 96.32768570598085 H 0.0 **** 0.06
25696 C 27.96769206423096 87.57099367153837 71.10557104306255 C 0.0 **** -0.24
25697 H 28.904100333270208 87.02217464704783 71.00392482937929 H 0.0 **** 0.06
25698 H 27.23937154846442 87.18171947050176 70.39270596128912 H 0.0 **** 0.06
25699 H 28.142688586201643 88.62812973529255 70.90477690818582 H 0.0 **** 0.06
25700 H 27.5848012575334 87.4520733652523 72.11865211144564 H 0.0 **** 0.06
25701 C 4.142571109854316 6.254330578611757 67.36078595373135 C 0.0 **** -0.24
25702 H 3.9913083883293154 6.621689743491373 66.34501845570298 H 0.0 **** 0.06
25703 H 5.108601846044621 6.599291796512915 67.73069286842093 H 0.0 **** 0.06
25704 H 4.122615740608069 5.164762025271273 67.35943203936182 H 0.0 **** 0.06
25705 H 3.3496773765971852 6.631935598315323 68.00572210791063 H 0.0 **** 0.06
25706 C 51.95848185258011 26.71961582356522 38.347356438316666 C 0.0 **** -0.24
25707 H 51.946266655566006 26.163049763359993 39.28450195495428 H 0.0 **** 0.06
25708 H 52.60941011120165 26.215323519310516 37.63265201386025 H 0.0 **** 0.06
25709 H 52.33064873907382 27.727514248165846 38.52949994169231 H 0.0 **** 0.06
25710 H 50.94771594675012 26.77294439411321 37.94369442165842 H 0.0 **** 0.06
25711 C 84.99721320561736 57.39349860220278 23.116011648739786 C 0.0 **** -0.24
25712 H 84.1294463441527 56.88167870705138 22.698208055559704 H 0.0 **** 0.06
25713 H 85.37787460429604 56.82729269127361 23.96667052265552 H 0.0 **** 0.06
25714 H 84.70563274344883 58.39150814534793 23.444761614421893 H 0.0 **** 0.06
25715 H 85.7722011415415 57.473396907399206 22.354964620715208 H 0.0 **** 0.06
25716 C 46.685239324161074 23.070079369353977 62.83064573708742 C 0.0 **** -0.24
25717 H 47.63606316717221 23.472583068822814 62.48132568524977 H 0.0 **** 0.06
25718 H 46.25297690145396 22.43622730308087 62.05572025001119 H 0.0 **** 0.06
25719 H 46.003660055089256 23.891037433045113 63.05137458738926 H 0.0 **** 0.06
25720 H 46.84891015099217 22.480571292927067 63.73256135384763 H 0.0 **** 0.06
25721 C 43.989949225999204 40.623223758645835 28.956488084540553 C 0.0 **** -0.24
25722 H 44.032716436687906 41.25378832917786 29.844722293001652 H 0.0 **** 0.06
25723 H 44.43991055051701 41.14964530545784 28.114336731725487 H 0.0 **** 0.06
25724 H 42.94975627891043 40.3920910095572 28.725940878560976 H 0.0 **** 0.06
25725 H 44.535137506914104 39.6976721657681 29.141805919338907 H 0.0 **** 0.06
25726 C 0.8709894136953977 11.38910864167795 21.178747779986878 C 0.0 **** -0.24
25727 H 0.6098173102803202 11.022698103880344 20.185913372151987 H 0.0 **** 0.06
25728 H 1.5779104623831586 10.701781731891003 21.645062187277745 H 0.0 **** 0.06
25729 H -0.02866483273881215 11.4553970783019 21.789619070507584 H 0.0 **** 0.06
25730 H 1.3259148213013532 12.37594336419275 21.092789562276522 H 0.0 **** 0.06
25731 C 69.57759621731066 44.177535033648724 71.8976416136916 C 0.0 **** -0.24
25732 H 69.45877865224162 43.57984001531773 72.80168684706777 H 0.0 **** 0.06
25733 H 68.59890442633798 44.51225781362854 71.55302186548872 H 0.0 **** 0.06
25734 H 70.04979319269438 43.574480089514935 71.12279555881653 H 0.0 **** 0.06
25735 H 70.20218350156938 45.0436919316991 72.11426945352869 H 0.0 **** 0.06
25736 C 26.620794418155498 66.1055955224532 70.50277449389577 C 0.0 **** -0.24
25737 H 26.409309218092318 66.1909214885954 71.56861697448784 H 0.0 **** 0.06
25738 H 27.53015859618378 66.66092827255153 70.26753386358968 H 0.0 **** 0.06
25739 H 25.787108614743744 66.51509102508822 69.93264985310137 H 0.0 **** 0.06
25740 H 26.75824163949099 65.05599254367695 70.24222397803035 H 0.0 **** 0.06
25741 C 70.58735956981286 76.01560650944121 52.62489076315136 C 0.0 **** -0.24
25742 H 71.52697084315486 75.72069588750443 53.09103456354066 H 0.0 **** 0.06
25743 H 70.66458910034294 75.89611626616602 51.5437309984455 H 0.0 **** 0.06
25744 H 70.37681553292356 77.0600577910929 52.86060363675181 H 0.0 **** 0.06
25745 H 69.78091921216361 75.3885518543255 53.004121671853426 H 0.0 **** 0.06
25746 C 35.85120924737956 81.67573265650145 37.66057658721098 C 0.0 **** -0.24
25747 H 36.40196107376042 80.8887738966526 37.14389088771429 H 0.0 **** 0.06
25748 H 34.847874591393776 81.32064544901198 37.89795265393903 H 0.0 **** 0.06
25749 H 35.78321019259229 82.55383314055877 37.017926291575975 H 0.0 **** 0.06
25750 H 36.371375416252704 81.93809098506813 38.58101718985586 H 0.0 **** 0.06
25751 C 15.732600000812823 18.050982762304802 21.208717674204365 C 0.0 **** -0.24
25752 H 14.855104504453834 18.076012419085064 21.855403773338992 H 0.0 **** 0.06
25753 H 16.538827963625636 18.62255959830342 21.66901336350341 H 0.0 **** 0.06
25754 H 15.48345779814926 18.486893648526525 20.241657938615973 H 0.0 **** 0.06
25755 H 16.051848531635727 17.017395095095107 21.07066814945975 H 0.0 **** 0.06
25756 C 100.60572699269323 25.953519603848292 43.35402437916008 C 0.0 **** -0.24
25757 H 100.86827462084489 24.982826139804985 43.77432978800755 H 0.0 **** 0.06
25758 H 101.49361524827327 26.413366166671466 42.91962328542786 H 0.0 **** 0.06
25759 H 100.21165493390322 26.595748248437104 44.14216226372179 H 0.0 **** 0.06
25760 H 99.84864619598955 25.82188999505027 42.58117574821529 H 0.0 **** 0.06
25761 C 57.93722949705341 2.3798465131455657 47.972130126124455 C 0.0 **** -0.24
25762 H 58.01276370996278 1.375945312918418 47.55486444511922 H 0.0 **** 0.06
25763 H 58.896805886776136 2.6656406534294774 48.40440853808303 H 0.0 **** 0.06
25764 H 57.170629952461816 2.39450384899709 48.74669709940048 H 0.0 **** 0.06
25765 H 57.67031928000709 3.0831243313737957 47.18318908818361 H 0.0 **** 0.06
25766 C 63.979163786420145 24.942342783951176 79.82418960967044 C 0.0 **** -0.24
25767 H 64.54137233492673 25.496592600000383 80.57604958197078 H 0.0 **** 0.06
25768 H 64.67171202080897 24.419493949642913 79.16421175545122 H 0.0 **** 0.06
25769 H 63.37266289842137 25.63398884354723 79.24037880124928 H 0.0 **** 0.06
25770 H 63.32995578217833 24.21765093288741 80.31729656950336 H 0.0 **** 0.06
25771 C 0.6138740327484662 98.33750519117005 103.47616079765706 C 0.0 **** -0.24
25772 H -0.4190267894690787 98.09858770489497 103.22248769442952 H 0.0 **** 0.06
25773 H 1.1839709070171676 98.50210509614179 102.56155423972565 H 0.0 **** 0.06
25774 H 1.0513841288629573 97.5103018244138 104.03413495749751 H 0.0 **** 0.06
25775 H 0.636984553456049 99.2399857247181 104.08702534921413 H 0.0 **** 0.06
25776 C 19.47686579484383 90.98872128581696 9.951030558324964 C 0.0 **** -0.24
25777 H 18.975744621454055 91.0990690642107 8.989435717312423 H 0.0 **** 0.06
25778 H 20.523612970930003 91.27722619684182 9.850070074833695 H 0.0 **** 0.06
25779 H 19.416138509968278 89.9493788900596 10.273787879033911 H 0.0 **** 0.06
25780 H 18.992903312193107 91.62683853897865 10.689248896312924 H 0.0 **** 0.06
25781 C 12.842708223572146 33.92247104627472 8.232668389759539 C 0.0 **** -0.24
25782 H 13.524470369033168 34.44070492570063 8.907595620569197 H 0.0 **** 0.06
25783 H 11.855987982435195 34.383479176516516 8.28968975809309 H 0.0 **** 0.06
25784 H 12.771891856166945 32.87437162670926 8.522228957651578 H 0.0 **** 0.06
25785 H 13.218683131528309 33.993422192219555 7.2124147574733115 H 0.0 **** 0.06
25786 C 95.22014952720076 98.69577950544343 46.8028542096323 C 0.0 **** -0.24
25787 H 94.41097837470993 98.49909267720534 46.0983954679964 H 0.0 **** 0.06
25788 H 95.81238669505461 97.7896828123925 46.936543017696295 H 0.0 **** 0.06
25789 H 94.7996206104408 99.00015384094753 47.761484700394135 H 0.0 **** 0.06
25790 H 95.85443865341186 99.49223329394216 46.41467082556227 H 0.0 **** 0.06
25791 C 63.76884005018171 71.11722782638591 100.9340629760614 C 0.0 **** -0.24
25792 H 62.859394568328554 70.65553346374708 101.31886025828672 H 0.0 **** 0.06
25793 H 63.57748635646635 72.16787695356808 100.71459109214933 H 0.0 **** 0.06
25794 H 64.07844333415186 70.60555633954542 100.02224838535523 H 0.0 **** 0.06
25795 H 64.55923102133023 71.03878479534038 101.68063682865667 H 0.0 **** 0.06
25796 C 27.004303016691722 89.62279054671627 9.056628355657864 C 0.0 **** -0.24
25797 H 27.717458991863907 88.97419470088796 8.547573638524 H 0.0 **** 0.06
25798 H 26.076440392876407 89.07768014075526 9.22915166353863 H 0.0 **** 0.06
25799 H 26.80205932577843 90.49661486633191 8.436956449014787 H 0.0 **** 0.06
25800 H 27.420874638587577 89.9429051789054 10.011935864831429 H 0.0 **** 0.06
25801 C 41.74649745202032 88.30124901679756 12.683993412134356 C 0.0 **** -0.24
25802 H 41.3848353530808 87.71890843142329 13.531503105436116 H 0.0 **** 0.06
25803 H 41.46224110663073 89.34607072001117 12.813930715278161 H 0.0 **** 0.06
25804 H 41.306587576329264 87.91699038940762 11.764060107000802 H 0.0 **** 0.06
25805 H 42.83230983220693 88.22408250044431 12.627420335901007 H 0.0 **** 0.06
25806 C 84.53235776974522 102.95964928607897 91.06086617067743 C 0.0 **** -0.24
25807 H 83.74207012341378 102.88451725541236 91.8083147354863 H 0.0 **** 0.06
25808 H 85.24207166742258 103.73112898056127 91.36011186648294 H 0.0 **** 0.06
25809 H 84.09646072605834 103.2196570333343 90.0969666002122 H 0.0 **** 0.06
25810 H 85.04764095759764 102.00229443902644 90.98132591164978 H 0.0 **** 0.06
25811 C 75.29713560539776 66.87171429128469 56.705035947874194 C 0.0 **** -0.24
25812 H 75.64102257653317 66.72759089617114 55.68106530391347 H 0.0 **** 0.06
25813 H 76.0536736922023 66.50016487846233 57.3973436376738 H 0.0 **** 0.06
25814 H 74.36603314106068 66.32511697121802 56.855768470720335 H 0.0 **** 0.06
25815 H 75.12841387761227 67.93277400849243 56.88638346200321 H 0.0 **** 0.06
25816 C 101.46172729427865 103.26301911119046 4.022298018139111 C 0.0 **** -0.24
25817 H 101.05250056368398 102.50612115265713 4.691138546568595 H 0.0 **** 0.06
25818 H 101.85800160561219 102.7807987224102 3.128228718710062 H 0.0 **** 0.06
25819 H 102.26191243767275 103.8010039413576 4.5303647014647765 H 0.0 **** 0.06
25820 H 100.67485917345137 103.96284514746338 3.740536068795393 H 0.0 **** 0.06
25821 C 88.30903570069691 101.78254931897322 105.49872169066128 C 0.0 **** -0.24
25822 H 88.07058638988549 101.59072585347855 106.54450338643053 H 0.0 **** 0.06
25823 H 88.49185675519412 102.84870616805404 105.35828728508095 H 0.0 **** 0.06
25824 H 87.47208135579048 101.47227190437937 104.87329779490173 H 0.0 **** 0.06
25825 H 89.2002679149258 101.2204916309862 105.22027602976057 H 0.0 **** 0.06
25826 C 90.994625103946 70.26608665634154 82.54462420010235 C 0.0 **** -0.24
25827 H 91.31373171828892 70.79698736096879 81.64752825512134 H 0.0 **** 0.06
25828 H 90.69976423286235 70.9873012591631 83.30752086204173 H 0.0 **** 0.06
25829 H 91.81765851539798 69.65735422607452 82.91882405699386 H 0.0 **** 0.06
25830 H 90.1466137024691 69.62380260297641 82.30411717488255 H 0.0 **** 0.06
25831 C 101.40281764909811 106.2188468088022 47.28276937471983 C 0.0 **** -0.24
25832 H 100.96726928701847 107.0606244997896 47.821148100536675 H 0.0 **** 0.06
25833 H 101.7733478346497 105.48369617645875 47.99769921161364 H 0.0 **** 0.06
25834 H 102.22637333315852 106.57082071403288 46.66276772937911 H 0.0 **** 0.06
25835 H 100.64219186356495 105.7606113265014 46.650173617283976 H 0.0 **** 0.06
25836 C 97.73701887927953 27.805868605863623 10.002206673333333 C 0.0 **** -0.24
25837 H 97.07455410164961 28.513910992806302 10.502011826185651 H 0.0 **** 0.06
25838 H 97.15581395801134 27.188197628747247 9.316495964749734 H 0.0 **** 0.06
25839 H 98.21753029029963 27.170657650625657 10.746488571821487 H 0.0 **** 0.06
25840 H 98.49762280596262 28.352509055930852 9.444940505264157 H 0.0 **** 0.06
25841 C 89.74918500065382 51.01746420595171 45.83750652305316 C 0.0 **** -0.24
25842 H 90.00753168633159 51.3963691336551 46.82634056025618 H 0.0 **** 0.06
25843 H 89.04023872598802 50.195606365869395 45.93679684940607 H 0.0 **** 0.06
25844 H 90.65089044516156 50.660978816800906 45.33926242653696 H 0.0 **** 0.06
25845 H 89.30021743816636 51.816248780991174 45.24760228051424 H 0.0 **** 0.06
25846 C 19.687732812917886 5.820194982211229 90.36236421784332 C 0.0 **** -0.24
25847 H 20.16666579036317 5.0645321762748186 89.7399900393932 H 0.0 **** 0.06
25848 H 19.074198203572735 6.469452630048352 89.73700149090791 H 0.0 **** 0.06
25849 H 20.450164188992233 6.414045127572395 90.86483414942954 H 0.0 **** 0.06
25850 H 19.05799072548649 5.332546692345826 91.10611399435582 H 0.0 **** 0.06
25851 C 51.631578708217624 106.84726891214886 59.03640891965995 C 0.0 **** -0.24
25852 H 51.97800322500029 105.83814349337352 58.8144886025467 H 0.0 **** 0.06
25853 H 50.57926878230386 106.9371823849477 58.76810673296933 H 0.0 **** 0.06
25854 H 52.21724107763253 107.56538905667811 58.46150735827723 H 0.0 **** 0.06
25855 H 51.7539632412751 107.04760796729111 60.100660290270696 H 0.0 **** 0.06
25856 C 12.584927221339555 92.4400857545142 22.096816915908683 C 0.0 **** -0.24
25857 H 12.017253805164799 93.27258597607388 22.512795271392555 H 0.0 **** 0.06
25858 H 11.900830749890062 91.7287173632423 21.634018102026506 H 0.0 **** 0.06
25859 H 13.139334312305436 91.9445339268523 22.894699700390795 H 0.0 **** 0.06
25860 H 13.282255833312718 92.8148893822504 21.34817366721928 H 0.0 **** 0.06
25861 C 107.05549847130101 32.4012569092896 4.38774102897321 C 0.0 **** -0.24
25862 H 108.13559340031438 32.53752336554726 4.320814383519746 H 0.0 **** 0.06
25863 H 106.60554789384204 32.5794767347312 3.410884900539884 H 0.0 **** 0.06
25864 H 106.64552308880684 33.106011351151864 5.111821213314784 H 0.0 **** 0.06
25865 H 106.83838417767703 31.38296795645968 4.708771640743805 H 0.0 **** 0.06
25866 C 27.89142378678596 100.05824023325792 52.561713195399264 C 0.0 **** -0.24
25867 H 26.862096557330442 100.36659339602247 52.38221548029162 H 0.0 **** 0.06
25868 H 27.984015753516676 98.98553084142435 52.38704472875953 H 0.0 **** 0.06
25869 H 28.162999121997487 100.28330876312819 53.59273970826127 H 0.0 **** 0.06
25870 H 28.554613294240433 100.59612716744263 51.88445842993502 H 0.0 **** 0.06
25871 C 27.136288708620313 47.18604829837471 30.007615553041077 C 0.0 **** -0.24
25872 H 26.32502306498668 47.67116882466352 30.55251457478522 H 0.0 **** 0.06
25873 H 27.862257789318562 47.936935425812266 29.695370241096924 H 0.0 **** 0.06
25874 H 26.732772773962026 46.68233933763515 29.12940096247246 H 0.0 **** 0.06
25875 H 27.622541521333744 46.45571546706679 30.654783916250096 H 0.0 **** 0.06
25876 C 91.63149284791972 93.16982580373241 61.979797523642944 C 0.0 **** -0.24
25877 H 92.00100847249684 92.15463772234392 61.83284481221682 H 0.0 **** 0.06
25878 H 90.54170530103391 93.15873452385426 62.00940863695277 H 0.0 **** 0.06
25879 H 91.96752955409632 93.80136188528411 61.1575000049768 H 0.0 **** 0.06
25880 H 92.0176998128555 93.56279625382984 62.92115993444692 H 0.0 **** 0.06
25881 C 10.663625925120556 47.607879640924466 29.528244941741633 C 0.0 **** -0.24
25882 H 10.777088875493973 48.433148754166666 30.230758092976913 H 0.0 **** 0.06
25883 H 10.735574164553128 46.6613021892241 30.065146560321352 H 0.0 **** 0.06
25884 H 11.451168740191008 47.659662847879304 28.776724148867544 H 0.0 **** 0.06
25885 H 9.691284764839992 47.67667331686624 29.04065003052912 H 0.0 **** 0.06
25886 C 69.61432310420736 66.27304049915448 64.57177747137692 C 0.0 **** -0.24
25887 H 69.51681655952524 65.7719720736838 63.609104849049515 H 0.0 **** 0.06
25888 H 68.85083001252536 65.90026178835366 65.25426851126483 H 0.0 **** 0.06
25889 H 69.48877148534251 67.3478334592885 64.43634983199834 H 0.0 **** 0.06
25890 H 70.60194930890913 66.0729415412651 64.98632488351384 H 0.0 **** 0.06
25891 C 84.52450530535656 58.908312751776435 18.10729170117213 C 0.0 **** -0.24
25892 H 84.58261637677481 57.85155031137023 17.847846284002628 H 0.0 **** 0.06
25893 H 84.29534234047551 59.00937507372987 19.167959619725337 H 0.0 **** 0.06
25894 H 83.74040634111194 59.38364996139242 17.518693351401453 H 0.0 **** 0.06
25895 H 85.48031399966568 59.38743770055149 17.89485409174526 H 0.0 **** 0.06
25896 C 100.37737604077721 104.54992259778419 20.69970429180711 C 0.0 **** -0.24
25897 H 99.77176419691729 104.221942448826 21.544756384711576 H 0.0 **** 0.06
25898 H 101.09875529759478 105.29389030714393 21.037727551451297 H 0.0 **** 0.06
25899 H 99.73160157298553 104.98968445179246 19.938985814271803 H 0.0 **** 0.06
25900 H 100.90570093229734 103.69555047763465 20.277870501248373 H 0.0 **** 0.06
25901 C 58.344856775518 43.33269168356023 106.56997912709761 C 0.0 **** -0.24
25902 H 58.947913469961065 44.23215058296432 106.44562470682068 H 0.0 **** 0.06
25903 H 58.27295569567133 43.0886050812899 107.63035062810823 H 0.0 **** 0.06
25904 H 58.81233073108524 42.50541178428671 106.03690809082684 H 0.0 **** 0.06
25905 H 57.3472520266817 43.50712656566981 106.16863403787497 H 0.0 **** 0.06
25906 C 0.2198705739685889 61.111386955142876 69.96001817673454 C 0.0 **** -0.24
25907 H -0.20165509127232095 62.05573189182704 70.3037105363154 H 0.0 **** 0.06
25908 H 1.2946897838307523 61.22447371338819 69.81462282810844 H 0.0 **** 0.06
25909 H -0.24637831171256286 60.827885004966575 69.0158177837352 H 0.0 **** 0.06
25910 H 0.03322132133373179 60.337448794003706 70.70372069230018 H 0.0 **** 0.06
25911 C 5.848867020739931 61.36108534338814 87.89095334034248 C 0.0 **** -0.24
25912 H 6.2210748414671 60.8844191687831 88.79746113179557 H 0.0 **** 0.06
25913 H 6.419096682449265 61.003457751878216 87.03251380705139 H 0.0 **** 0.06
25914 H 5.9598929377351055 62.44196302983221 87.97570808269711 H 0.0 **** 0.06
25915 H 4.796226542803822 61.112371699785285 87.75646077480033 H 0.0 **** 0.06
25916 C 9.091147086671072 86.44784745556987 40.6876104135833 C 0.0 **** -0.24
25917 H 9.979682401785453 87.07100825491901 40.59213651310131 H 0.0 **** 0.06
25918 H 8.935667485480565 85.89208174733895 39.76177329177736 H 0.0 **** 0.06
25919 H 8.22428698929528 87.07829834990447 40.88336768360068 H 0.0 **** 0.06
25920 H 9.225431590067217 85.74796855053131 41.512366072478045 H 0.0 **** 0.06
25921 C 96.9508450821504 36.58950115248871 105.94047920447407 C 0.0 **** -0.24
25922 H 95.893698747343 36.58111466690329 105.67277403861098 H 0.0 **** 0.06
25923 H 97.52563110600055 37.04900939682082 105.13622742876159 H 0.0 **** 0.06
25924 H 97.2938601884788 35.566604645459336 106.09584998892169 H 0.0 **** 0.06
25925 H 97.08742583984812 37.162432166514265 106.8584871172863 H 0.0 **** 0.06
25926 C 6.74852812015628 104.64750475377728 78.44219362271437 C 0.0 **** -0.24
25927 H 6.897455692782643 103.87382340662388 79.1942749876806 H 0.0 **** 0.06
25928 H 6.962529479812517 104.23957923315915 77.45409802269806 H 0.0 **** 0.06
25929 H 7.418932670774026 105.48359291187889 78.642775441522 H 0.0 **** 0.06
25930 H 5.715730239260552 104.9930633585045 78.47631774580451 H 0.0 **** 0.06
25931 C 44.89792770133693 43.96058660016763 16.837059352677016 C 0.0 **** -0.24
25932 H 45.15708508266494 43.223044246510426 16.07815923569163 H 0.0 **** 0.06
25933 H 43.93397882488691 44.40830187372313 16.59361461162402 H 0.0 **** 0.06
25934 H 45.66310338467487 44.736071051569525 16.86683737489352 H 0.0 **** 0.06
25935 H 44.83639611080572 43.473231222400216 17.81052087962155 H 0.0 **** 0.06
25936 C 74.86102417077828 7.375313216606827 59.20643434933609 C 0.0 **** -0.24
25937 H 75.17317454929608 6.3314836405273525 59.192305519989304 H 0.0 **** 0.06
25938 H 74.10411047325337 7.518794274173757 59.97738346378881 H 0.0 **** 0.06
25939 H 74.44558672232378 7.643531267278007 58.23461566742935 H 0.0 **** 0.06
25940 H 75.72183903908208 8.009375152364157 59.42048800168283 H 0.0 **** 0.06
25941 C 9.154630312910342 76.75752008216466 52.7552338574429 C 0.0 **** -0.24
25942 H 9.024733973618083 77.55922511260576 53.48262283173847 H 0.0 **** 0.06
25943 H 10.190762579515024 76.73906372956333 52.41759353456612 H 0.0 **** 0.06
25944 H 8.496873721217867 76.92929880894997 51.90396129053525 H 0.0 **** 0.06
25945 H 8.906596179431517 75.80293674040036 53.21951548423144 H 0.0 **** 0.06
25946 C 44.70009210263925 99.63956397456485 13.317012925651994 C 0.0 **** -0.24
25947 H 45.48724988805028 99.1991748256666 13.9290331270129 H 0.0 **** 0.06
25948 H 45.12358595486541 100.42484396542915 12.69203538081058 H 0.0 **** 0.06
25949 H 43.932090011594596 100.06355912180715 13.963636148984563 H 0.0 **** 0.06
25950 H 44.25801496274671 98.86893110004502 12.684620219989853 H 0.0 **** 0.06
25951 C 34.36147278957782 67.25791991518123 103.98755383811323 C 0.0 **** -0.24
25952 H 34.00854298783611 66.31258790392694 103.57687927856944 H 0.0 **** 0.06
25953 H 35.02597199964708 67.74066485071522 103.27075132112833 H 0.0 **** 0.06
25954 H 34.90070649529912 67.07195597383965 104.91645056816952 H 0.0 **** 0.06
25955 H 33.508536013880246 67.90748651903986 104.18677943470465 H 0.0 **** 0.06
25956 C 73.44001301000714 93.63337445349322 12.422453084779548 C 0.0 **** -0.24
25957 H 72.50550378709872 94.10315460791185 12.727470751487274 H 0.0 **** 0.06
25958 H 74.13148602979035 94.39682849146686 12.065074111748402 H 0.0 **** 0.06
25959 H 73.24349112432509 92.91748526275693 11.624524824390079 H 0.0 **** 0.06
25960 H 73.88039678124952 93.11407396825471 13.274612063394272 H 0.0 **** 0.06
25961 C 106.35501492695448 25.34223180958179 56.756803972800355 C 0.0 **** -0.24
25962 H 106.32531697735448 24.678565482516717 55.89262994708383 H 0.0 **** 0.06
25963 H 105.58670760596252 26.10871582777702 56.65347036437083 H 0.0 **** 0.06
25964 H 107.33508838143428 25.81518294847342 56.81781171191295 H 0.0 **** 0.06
25965 H 106.17308466905907 24.765087660614824 57.6636031441538 H 0.0 **** 0.06
25966 C 106.60794840891877 100.02762280063939 50.59162241156501 C 0.0 **** -0.24
25967 H 106.64181343745125 99.26535821434277 49.81303036095343 H 0.0 **** 0.06
25968 H 106.41087282458642 99.55487183420635 51.55401030862892 H 0.0 **** 0.06
25969 H 105.814124632014 100.73989312396452 50.36769500550954 H 0.0 **** 0.06
25970 H 107.5637268943493 100.54928360225131 50.62995198884993 H 0.0 **** 0.06
25971 C 61.58097445875654 2.2659379182863972 101.95764006385883 C 0.0 **** -0.24
25972 H 62.44940820659238 2.920836147853322 101.8860310830189 H 0.0 **** 0.06
25973 H 61.902581615644095 1.2703438581247042 102.26465317075179 H 0.0 **** 0.06
25974 H 61.08864462624952 2.207052480811626 100.98708376139069 H 0.0 **** 0.06
25975 H 60.884630743178676 2.6668779652347894 102.69430364097207 H 0.0 **** 0.06
25976 C 47.09632438062506 101.38908318870887 21.67411626343042 C 0.0 **** -0.24
25977 H 47.167635656481366 100.41629700885358 21.18877575967403 H 0.0 **** 0.06
25978 H 47.32782761895015 101.28463222879947 22.734187469480133 H 0.0 **** 0.06
25979 H 46.08548674942247 101.77966733006514 21.558379481845307 H 0.0 **** 0.06
25980 H 47.80631555050217 102.07660628695459 21.213951885325443 H 0.0 **** 0.06
25981 C 59.21648617214665 4.468729197099963 23.964936462211398 C 0.0 **** -0.24
25982 H 59.62972797124612 3.7171937306421414 23.291641280172257 H 0.0 **** 0.06
25983 H 59.4980732589183 4.2327991663492375 24.990497955859183 H 0.0 **** 0.06
25984 H 58.130257581869955 4.475461713137555 23.87779402778591 H 0.0 **** 0.06
25985 H 59.60828748703347 5.450291313926346 23.6966264039888 H 0.0 **** 0.06
25986 C 83.06615703867408 12.731350184013678 85.83820213074964 C 0.0 **** -0.24
25987 H 82.20900398101072 13.293469608009133 85.46953964680958 H 0.0 **** 0.06
25988 H 83.94053938262923 12.962007021660398 85.22951366049006 H 0.0 **** 0.06
25989 H 82.85255627605125 11.663292787931042 85.77786219281708 H 0.0 **** 0.06
25990 H 83.26081247764408 13.004754189663686 86.87465529445305 H 0.0 **** 0.06
25991 C 46.20356158888222 12.53620107812236 27.802555004897073 C 0.0 **** -0.24
25992 H 45.935793553148926 11.510136021229187 27.55005650430701 H 0.0 **** 0.06
25993 H 47.28825832751207 12.643204888918376 27.783930049117203 H 0.0 **** 0.06
25994 H 45.831523652858266 12.772446034995568 28.79982168551612 H 0.0 **** 0.06
25995 H 45.758033459521954 13.216115219682337 27.077494263199924 H 0.0 **** 0.06
25996 C 69.91408381390207 28.837840464884934 66.62930087480862 C 0.0 **** -0.24
25997 H 70.04629885050075 27.92213092792277 66.05362744034267 H 0.0 **** 0.06
25998 H 68.88154511442353 28.905173571334984 66.97410496588716 H 0.0 **** 0.06
25999 H 70.14319470670203 29.698152588888583 66.00009186726726 H 0.0 **** 0.06
26000 H 70.5842756189956 28.826703592583172 67.48881388752105 H 0.0 **** 0.06
26001 C 67.10632676853811 48.89172464664466 63.19254597037184 C 0.0 **** -0.24
26002 H 66.10989822404213 48.54754186521188 62.91486433354851 H 0.0 **** 0.06
26003 H 67.61647148442336 48.110022712690636 63.756702181457 H 0.0 **** 0.06
26004 H 67.02323461560968 49.78815319355596 63.80678309610124 H 0.0 **** 0.06
26005 H 67.67507920271254 49.12064238965269 62.29126740818546 H 0.0 **** 0.06
26006 C 98.28893998318716 22.15580775810301 8.494199670181018 C 0.0 **** -0.24
26007 H 97.86280627971564 23.15335003078539 8.60636134625355 H 0.0 **** 0.06
26008 H 97.52457477879165 21.473816114575982 8.121688004481058 H 0.0 **** 0.06
26009 H 98.65031303562967 21.804274691613827 9.460252306503122 H 0.0 **** 0.06
26010 H 99.11853202006336 22.19259746306136 7.788135029170661 H 0.0 **** 0.06
26011 C 16.68427585704393 81.75527692270701 15.125541285511503 C 0.0 **** -0.24
26012 H 16.767156272685455 81.51092093661606 14.066746841800935 H 0.0 **** 0.06
26013 H 15.850078663440954 82.44120276062479 15.27443559325286 H 0.0 **** 0.06
26014 H 17.60735775568037 82.22462499844616 15.463163587927028 H 0.0 **** 0.06
26015 H 16.51025551308932 80.84286740871963 15.69543380220344 H 0.0 **** 0.06
26016 C 99.03438357483776 5.735061681264682 22.734482441548977 C 0.0 **** -0.24
26017 H 100.05676699862406 5.402976682929932 22.91260138438676 H 0.0 **** 0.06
26018 H 98.38162848286584 4.8677238432900936 22.63967981807542 H 0.0 **** 0.06
26019 H 98.99763644476012 6.320839091790276 21.815227718392066 H 0.0 **** 0.06
26020 H 98.70279156771058 6.350743223762052 23.570859573363265 H 0.0 **** 0.06
26021 C 45.581274849035225 32.69718716016223 0.00485998894317019 C 0.0 **** -0.24
26022 H 46.02619083510254 31.729798112856344 -0.23198803408996493 H 0.0 **** 0.06
26023 H 45.140575830095116 32.65926783031668 1.000962491632091 H 0.0 **** 0.06
26024 H 44.80810258724776 32.93044655533126 -0.7267569779542993 H 0.0 **** 0.06
26025 H 46.35269020259375 33.46751901647647 -0.02277954542082261 H 0.0 **** 0.06
26026 C 51.23236574357996 66.225649737888 96.11225575045614 C 0.0 **** -0.24
26027 H 50.636885534168634 67.0940490469236 96.39532058663691 H 0.0 **** 0.06
26028 H 51.98498006041421 66.52422945168007 95.38074589352819 H 0.0 **** 0.06
26029 H 50.58232238066902 65.46670921322875 95.6759855940423 H 0.0 **** 0.06
26030 H 51.724761762155495 65.81849509333864 96.99474479488526 H 0.0 **** 0.06
26031 C 75.6292468120592 20.031075565074048 89.96664808517004 C 0.0 **** -0.24
26032 H 74.71582976012007 20.591517334918308 89.7699834643775 H 0.0 **** 0.06
26033 H 75.66984446758937 19.760577484344367 91.02212634664949 H 0.0 **** 0.06
26034 H 76.49330283481211 20.646168282321923 89.71529803784932 H 0.0 **** 0.06
26035 H 75.63801018571525 19.126039158711762 89.35918449180369 H 0.0 **** 0.06
26036 C 16.90095146339118 20.581254792243698 61.85081122754008 C 0.0 **** -0.24
26037 H 16.50594215916098 20.636880193001076 62.86535653784057 H 0.0 **** 0.06
26038 H 16.386551616588164 21.306702334672877 61.220898258770035 H 0.0 **** 0.06
26039 H 16.74218353777725 19.57861181422807 61.454635153151855 H 0.0 **** 0.06
26040 H 17.96776081132451 20.80248980585435 61.86435929451119 H 0.0 **** 0.06
26041 C 102.20133555105961 31.058583203256376 27.767673149113094 C 0.0 **** -0.24
26042 H 101.55425628620588 31.857967270015365 27.407105223215893 H 0.0 **** 0.06
26043 H 102.95306597842175 30.83231883951902 27.01116899702845 H 0.0 **** 0.06
26044 H 101.60462045647874 30.168460389967407 27.964119397947997 H 0.0 **** 0.06
26045 H 102.69417519630603 31.376671066563745 28.686244262659002 H 0.0 **** 0.06
26046 C 48.19027138325336 29.389620766474366 55.51469280529301 C 0.0 **** -0.24
26047 H 48.15385523741207 30.07125209295515 54.664299159354584 H 0.0 **** 0.06
26048 H 49.02191856892772 28.695222096272545 55.38828777757146 H 0.0 **** 0.06
26049 H 47.255788047993086 28.83102093563717 55.571927880603084 H 0.0 **** 0.06
26050 H 48.32918597071598 29.960829293361982 56.43205163279595 H 0.0 **** 0.06
26051 C 42.67869739162525 53.880878682487946 90.31015463190701 C 0.0 **** -0.24
26052 H 41.97982258589542 54.70662084463942 90.43713697897059 H 0.0 **** 0.06
26053 H 42.661553531050316 53.24985996314376 91.19916880750091 H 0.0 **** 0.06
26054 H 43.68465272994796 54.274805693275084 90.16418514913622 H 0.0 **** 0.06
26055 H 42.3903321767303 53.29150516265014 89.44021611243053 H 0.0 **** 0.06
26056 C 51.01617837689641 69.77944382249524 59.06074930267756 C 0.0 **** -0.24
26057 H 49.940021435352534 69.88580716169452 58.92628087825166 H 0.0 **** 0.06
26058 H 51.29082531641953 68.72754261504497 58.9730356460721 H 0.0 **** 0.06
26059 H 51.29766244128046 70.14753231852808 60.047816337014886 H 0.0 **** 0.06
26060 H 51.536539610543976 70.35554365352459 58.29612204543346 H 0.0 **** 0.06
26061 C 91.54393240254053 28.27743195318351 70.14349791812324 C 0.0 **** -0.24
26062 H 90.57921063354408 28.727367977313833 69.907027553269 H 0.0 **** 0.06
26063 H 92.21324419688246 29.04209494170931 70.53949666519124 H 0.0 **** 0.06
26064 H 91.97627146668829 27.848193497434806 69.23978005384178 H 0.0 **** 0.06
26065 H 91.40565806738776 27.493758456348132 70.88827423293542 H 0.0 **** 0.06
26066 C 35.37356563732942 37.92679279989744 76.34581370718456 C 0.0 **** -0.24
26067 H 35.995318675750866 37.7706260478642 77.22736223766395 H 0.0 **** 0.06
26068 H 35.883749267980534 38.59954272692829 75.6553964616867 H 0.0 **** 0.06
26069 H 34.42179722172733 38.3665976044378 76.64478251916375 H 0.0 **** 0.06
26070 H 35.19375645567709 36.97062119613901 75.85403301893055 H 0.0 **** 0.06
26071 C 91.94462039232104 81.16733014957802 65.6483224463285 C 0.0 **** -0.24
26072 H 92.84282021340437 80.84535890138622 65.1224942902426 H 0.0 **** 0.06
26073 H 91.09326438756631 81.13160590816057 64.96831622802203 H 0.0 **** 0.06
26074 H 92.08001889033432 82.18742822208527 66.00706867250224 H 0.0 **** 0.06
26075 H 91.76213790989323 80.50585424490986 66.49512140119161 H 0.0 **** 0.06
26076 C 80.16822971198891 35.63142904342956 55.87721119381018 C 0.0 **** -0.24
26077 H 80.03395586128835 34.735551576401036 56.48357479230237 H 0.0 **** 0.06
26078 H 81.23195565803309 35.800121400521945 55.70957257574147 H 0.0 **** 0.06
26079 H 79.74065513680979 36.488472385388775 56.39606409061365 H 0.0 **** 0.06
26080 H 79.6658970117729 35.49961533110657 54.918648868434815 H 0.0 **** 0.06
26081 C 30.88576708388854 58.35718734932806 71.04265276020635 C 0.0 **** -0.24
26082 H 30.57779235246349 58.96713603407676 71.89179047911603 H 0.0 **** 0.06
26083 H 31.72613595266037 58.8365135942135 70.53766726011105 H 0.0 **** 0.06
26084 H 30.053471249704103 58.256782001946476 70.3470680778401 H 0.0 **** 0.06
26085 H 31.18803273111081 57.37080088415286 71.39458163159173 H 0.0 **** 0.06
26086 C 3.311170091815428 52.768414123955154 25.541325726263118 C 0.0 **** -0.24
26087 H 3.671422463817305 51.90490286198286 24.981733680197216 H 0.0 **** 0.06
26088 H 2.238598066729673 52.88095287210456 25.38621304490158 H 0.0 **** 0.06
26089 H 3.8251859404860262 53.664924006483886 25.19523119052056 H 0.0 **** 0.06
26090 H 3.5109351211146986 52.62134846816201 26.603361693399684 H 0.0 **** 0.06
26091 C 6.256459324245867 16.21879399007821 29.79366896978361 C 0.0 **** -0.24
26092 H 6.58403596054859 15.198323856387049 29.59368150375977 H 0.0 **** 0.06
26093 H 6.999642618587842 16.72368920033017 30.410888646614403 H 0.0 **** 0.06
26094 H 5.301459032220521 16.19737609707937 30.318055653479092 H 0.0 **** 0.06
26095 H 6.141938601114418 16.75394410149471 28.851015762511274 H 0.0 **** 0.06
26096 C 33.42606742551959 86.92545434380355 73.25497413024735 C 0.0 **** -0.24
26097 H 33.090661228703084 86.54439681983632 74.21948517132651 H 0.0 **** 0.06
26098 H 32.676635201458225 87.60649105524988 72.85210438595149 H 0.0 **** 0.06
26099 H 33.56937251879049 86.09272235364739 72.56593942880451 H 0.0 **** 0.06
26100 H 34.36944447289682 87.45723482687572 73.38317717818236 H 0.0 **** 0.06
26101 C 76.16324718641579 41.441480823815 100.09409832215943 C 0.0 **** -0.24
26102 H 75.87951811027 40.39615276320548 99.96770681021263 H 0.0 **** 0.06
26103 H 77.19354404019583 41.498232410127116 100.44494493403539 H 0.0 **** 0.06
26104 H 75.50324414598802 41.91071680003651 100.82434303172926 H 0.0 **** 0.06
26105 H 76.07461074887328 41.959034860404785 99.13867949843092 H 0.0 **** 0.06
26106 C 34.1794268013711 26.211651031553444 64.52971486974008 C 0.0 **** -0.24
26107 H 34.19675894521353 25.98379692989633 63.46409495775691 H 0.0 **** 0.06
26108 H 34.07182047929856 27.2875577589611 64.66970890739123 H 0.0 **** 0.06
26109 H 35.11049862845938 25.8767788118314 64.9878432294555 H 0.0 **** 0.06
26110 H 33.33995623310516 25.69739874161108 64.99691228417214 H 0.0 **** 0.06
26111 C 68.50933927343024 52.33660500085234 93.35333428906823 C 0.0 **** -0.24
26112 H 67.44169535389514 52.46648702703773 93.17274114159123 H 0.0 **** 0.06
26113 H 69.07210634524009 52.995219344579205 92.69112501870659 H 0.0 **** 0.06
26114 H 68.78693878497708 51.3011256557744 93.15738346686705 H 0.0 **** 0.06
26115 H 68.73545726133128 52.58388035530773 94.39083430763229 H 0.0 **** 0.06
26116 C 70.98068455913445 35.47440148971353 105.33986656911819 C 0.0 **** -0.24
26117 H 71.03918018453072 34.38810978398624 105.40719630788595 H 0.0 **** 0.06
26118 H 71.75206610027143 35.838012059074 104.66011467727026 H 0.0 **** 0.06
26119 H 71.1330285808595 35.907593724734284 106.32787691541293 H 0.0 **** 0.06
26120 H 69.99872281383215 35.762949168687385 104.96406195999154 H 0.0 **** 0.06
26121 C 22.925432391323568 88.2840805746261 102.6204514670243 C 0.0 **** -0.24
26122 H 23.7152236698235 88.13538151812952 103.35698323562666 H 0.0 **** 0.06
26123 H 23.060508503083952 87.58339102633 101.79680331069508 H 0.0 **** 0.06
26124 H 22.97067932294749 89.30469581332304 102.24046468233848 H 0.0 **** 0.06
26125 H 21.955887055312814 88.1135179112883 103.08803986537458 H 0.0 **** 0.06
26126 C 50.99138858989167 87.44878058218134 87.24912408696284 C 0.0 **** -0.24
26127 H 51.03222875810786 87.4634232138522 88.338057675769 H 0.0 **** 0.06
26128 H 49.96986030702186 87.24546218343787 86.92663635382078 H 0.0 **** 0.06
26129 H 51.653955345523116 86.6702731248673 86.87140577419441 H 0.0 **** 0.06
26130 H 51.30899161830905 88.41726458752899 86.86059502422174 H 0.0 **** 0.06
26131 C 45.64886060636226 6.181035328368978 53.37685290073631 C 0.0 **** -0.24
26132 H 46.17285558842278 5.988780682657989 52.440996029688016 H 0.0 **** 0.06
26133 H 44.57609919118943 6.05737049351842 53.22481766244866 H 0.0 **** 0.06
26134 H 45.85377220564149 7.20088366537027 53.70405064054165 H 0.0 **** 0.06
26135 H 45.992412543727966 5.478932080547452 54.13629202640895 H 0.0 **** 0.06
26136 C 76.83629758573403 87.00289818095087 48.63146806881164 C 0.0 **** -0.24
26137 H 77.80104232939004 86.55889611064245 48.387180486593735 H 0.0 **** 0.06
26138 H 76.04483769542787 86.45615471495293 48.11728171505095 H 0.0 **** 0.06
26139 H 76.82465896873995 88.04473624626124 48.31185161465268 H 0.0 **** 0.06
26140 H 76.67469268968492 86.95106822234249 49.70799173411643 H 0.0 **** 0.06
26141 C 5.7042378174476625 26.379801557550934 25.190541919939136 C 0.0 **** -0.24
26142 H 6.402987625310843 27.17706461212262 25.445428305146578 H 0.0 **** 0.06
26143 H 5.1556115637443725 26.653845370465476 24.28951033195932 H 0.0 **** 0.06
26144 H 5.003384383226546 26.235678729816456 26.013343124010902 H 0.0 **** 0.06
26145 H 6.254830325168982 25.456491450510597 25.015610622397276 H 0.0 **** 0.06
26146 C 99.06753953177208 52.13328517656997 89.52022959043842 C 0.0 **** -0.24
26147 H 98.66140665137381 51.715593647924536 90.44071724021921 H 0.0 **** 0.06
26148 H 100.15079931364535 52.006621758715745 89.51015985222278 H 0.0 **** 0.06
26149 H 98.82537519394955 53.19538591160488 89.46631077412763 H 0.0 **** 0.06
26150 H 98.63243157760338 51.617691438240236 88.66432021694192 H 0.0 **** 0.06
26151 C 58.1713307812816 46.58357169615354 92.15440675466039 C 0.0 **** -0.24
26152 H 58.63423680989317 47.077837882327 93.00794152671767 H 0.0 **** 0.06
26153 H 57.82359786195346 45.59377757523475 92.4533368606389 H 0.0 **** 0.06
26154 H 58.90265704928038 46.48444928676673 91.35125644546912 H 0.0 **** 0.06
26155 H 57.326258120592485 47.17560022151926 91.80539378248488 H 0.0 **** 0.06
26156 C 9.067522117040824 75.26526201084508 75.58743319981988 C 0.0 **** -0.24
26157 H 9.707081783431946 74.61241406622756 74.99259057623632 H 0.0 **** 0.06
26158 H 8.838715502291777 74.78128090083717 76.53707394216684 H 0.0 **** 0.06
26159 H 8.141472985591662 75.45789621115546 75.04517329281148 H 0.0 **** 0.06
26160 H 9.582518882507017 76.20770266117742 75.77321170092333 H 0.0 **** 0.06
26161 C 8.609940121577088 50.45952014521964 60.239453992219694 C 0.0 **** -0.24
26162 H 9.645446489073459 50.734411456631534 60.04014013848598 H 0.0 **** 0.06
26163 H 8.215803006510457 51.087520833234606 61.03871915374401 H 0.0 **** 0.06
26164 H 8.564290367979911 49.41341259181411 60.5429186738574 H 0.0 **** 0.06
26165 H 8.016655838065237 50.60228808765203 59.33740538665546 H 0.0 **** 0.06
26166 C 49.70957276816575 13.307608359637584 73.32037823969623 C 0.0 **** -0.24
26167 H 50.21554275742096 13.24908007399884 74.2849639527357 H 0.0 **** 0.06
26168 H 50.15184311942409 12.58452633721214 72.63453199871046 H 0.0 **** 0.06
26169 H 49.8216905505457 14.311851313617353 72.91208498164664 H 0.0 **** 0.06
26170 H 48.650806711876406 13.08428728933535 73.45134327550443 H 0.0 **** 0.06
26171 C 47.41625320936555 39.91834069933694 62.346828385572024 C 0.0 **** -0.24
26172 H 47.35677546048714 38.94962527060426 61.84916123510169 H 0.0 **** 0.06
26173 H 47.33448499245398 39.77762811084017 63.42520387315682 H 0.0 **** 0.06
26174 H 46.600880272344426 40.554063241359245 62.00107623494233 H 0.0 **** 0.06
26175 H 48.37024490123798 40.38887908981752 62.1116112013227 H 0.0 **** 0.06
26176 C 70.04264700246995 12.412929204735553 40.705415889151126 C 0.0 **** -0.24
26177 H 70.41903586501058 13.01038073761314 41.53465271419867 H 0.0 **** 0.06
26178 H 69.2466125342259 12.95733028173327 40.19691581674995 H 0.0 **** 0.06
26179 H 69.6524334044509 11.468623417834236 41.086014982394104 H 0.0 **** 0.06
26180 H 70.85344639181216 12.214328064637872 40.004012526599865 H 0.0 **** 0.06
26181 C 25.600589292435245 75.80219250608349 42.098491282764314 C 0.0 **** -0.24
26182 H 25.65704484669419 75.31742944992793 43.07324574798369 H 0.0 **** 0.06
26183 H 24.920856438144313 75.24447482126263 41.4533323922806 H 0.0 **** 0.06
26184 H 26.592745712544456 75.82589318679986 41.64664543625932 H 0.0 **** 0.06
26185 H 25.23260078525351 76.82133317976287 42.21970383649497 H 0.0 **** 0.06
26186 C 5.529409893933405 92.30782733659723 30.438319439015658 C 0.0 **** -0.24
26187 H 6.530159046615594 91.89310192336595 30.562551924247288 H 0.0 **** 0.06
26188 H 5.1047621003589825 91.95510754543037 29.49742901207091 H 0.0 **** 0.06
26189 H 5.586164683743846 93.39613712952007 30.42664122498502 H 0.0 **** 0.06
26190 H 4.897415025640186 91.98569891899763 31.265842532708376 H 0.0 **** 0.06
26191 C 26.057906749239123 30.07507105387623 99.23732692001147 C 0.0 **** -0.24
26192 H 25.96254974844891 31.14824643231117 99.06816895501093 H 0.0 **** 0.06
26193 H 25.094254298371876 29.67002471847431 99.54771404930997 H 0.0 **** 0.06
26194 H 26.796290131731137 29.894674727541144 100.01805466750119 H 0.0 **** 0.06
26195 H 26.377335720916726 29.589474333926063 98.31530107502279 H 0.0 **** 0.06
26196 C 2.5839247700683927 79.57878182938 23.396837679611863 C 0.0 **** -0.24
26197 H 2.9541916369362866 79.85156704210638 24.38489909834712 H 0.0 **** 0.06
26198 H 2.677762107650608 78.50136694738165 23.258311630338554 H 0.0 **** 0.06
26199 H 3.1668526945992994 80.09648809799981 22.635502712780806 H 0.0 **** 0.06
26200 H 1.5358778904327437 79.86678347979566 23.310312952604903 H 0.0 **** 0.06
26201 C 43.04220133992652 90.72375543697964 106.49677807443183 C 0.0 **** -0.24
26202 H 43.913167957263795 90.64522630565837 105.84523599026912 H 0.0 **** 0.06
26203 H 42.17834597287185 91.0387888693188 105.91165967852933 H 0.0 **** 0.06
26204 H 43.23936087204453 91.45719677524924 107.27833012503442 H 0.0 **** 0.06
26205 H 42.84086890117112 89.75375857246118 106.9507186113147 H 0.0 **** 0.06
26206 C 2.2075514134781713 41.168322355161195 1.1248371118717415 C 0.0 **** -0.24
26207 H 3.0917681342368155 41.11740760865348 1.7599569218756983 H 0.0 **** 0.06
26208 H 1.6325953912381124 40.247970398081634 1.2290127904061166 H 0.0 **** 0.06
26209 H 2.5137159788820895 41.291327429757246 0.08644524327952752 H 0.0 **** 0.06
26210 H 1.5926515187946393 42.01744235147174 1.4259303451870977 H 0.0 **** 0.06
26211 C 84.47511312493539 104.45383233903766 58.84083595818638 C 0.0 **** -0.24
26212 H 84.92556369178627 103.68286351955862 58.21607596311956 H 0.0 **** 0.06
26213 H 83.7586761162188 103.99651345421225 59.523340290392014 H 0.0 **** 0.06
26214 H 83.96270642922597 105.17956273793789 58.208064637258914 H 0.0 **** 0.06
26215 H 85.25404100500963 104.9572676472146 59.41363955764472 H 0.0 **** 0.06
26216 C 37.310263424282 14.45984819715298 0.5915372195121904 C 0.0 **** -0.24
26217 H 37.90754438840332 15.371929844191015 0.5676567422293459 H 0.0 **** 0.06
26218 H 36.566010239702536 14.492557182857354 -0.20328663736368924 H 0.0 **** 0.06
26219 H 36.809294005652504 14.379619672829506 1.5565826905507407 H 0.0 **** 0.06
26220 H 37.96043595334649 13.597467414646388 0.44632100649789663 H 0.0 **** 0.06
26221 C 20.452576150671334 3.134032184964738 75.09069703114338 C 0.0 **** -0.24
26222 H 19.74017965388188 2.4216257152042573 74.67491830234658 H 0.0 **** 0.06
26223 H 20.22528353776886 4.133417238751974 74.71986110689755 H 0.0 **** 0.06
26224 H 21.46269894612533 2.855423984778838 74.78988457700564 H 0.0 **** 0.06
26225 H 20.381688463190102 3.1249972919589197 76.17871773419364 H 0.0 **** 0.06
26226 C 94.77817326917013 39.24788544934867 83.26552436574403 C 0.0 **** -0.24
26227 H 95.3275616067803 39.46267575507318 84.18216022041777 H 0.0 **** 0.06
26228 H 95.39976394908231 39.490139833975064 82.40418036062295 H 0.0 **** 0.06
26229 H 93.86927232171482 39.84897604328478 83.23852668845339 H 0.0 **** 0.06
26230 H 94.51475168878127 38.19042914038022 83.23916261393886 H 0.0 **** 0.06
26231 C 38.025116047767995 30.762088731216096 95.96686530038372 C 0.0 **** -0.24
26232 H 37.35546478995798 30.294573795271134 95.24584336704172 H 0.0 **** 0.06
26233 H 37.49269562744951 30.927585453236077 96.90339721729876 H 0.0 **** 0.06
26234 H 38.37280863054343 31.717453456837603 95.57260287503968 H 0.0 **** 0.06
26235 H 38.88008332354724 30.110209933056097 96.14403657454764 H 0.0 **** 0.06
26236 C 62.60116439153791 44.78959009283375 58.53416318329337 C 0.0 **** -0.24
26237 H 63.20954214330487 43.89911530744871 58.37334678750378 H 0.0 **** 0.06
26238 H 62.8038636161462 45.19358124248021 59.52585308751924 H 0.0 **** 0.06
26239 H 61.54678947904739 44.52740775475513 58.45688708609936 H 0.0 **** 0.06
26240 H 62.846663232279866 45.53751512074456 57.77978648117033 H 0.0 **** 0.06
26241 C 89.31197631695787 54.153529779874304 28.839318228039332 C 0.0 **** -0.24
26242 H 88.44829835996597 54.46545746944673 29.42812829484322 H 0.0 **** 0.06
26243 H 89.2565810159173 53.080347017595386 28.655025372435517 H 0.0 **** 0.06
26244 H 90.2259142500786 54.38178536881912 29.386395445745393 H 0.0 **** 0.06
26245 H 89.31443981065021 54.686731516338455 27.888629768318467 H 0.0 **** 0.06
26246 C 94.9589671060951 77.82453711226788 88.69635873092432 C 0.0 **** -0.24
26247 H 95.05334328074919 77.39283192006505 89.69270027174966 H 0.0 **** 0.06
26248 H 95.65568170634214 78.65796376066587 88.5945815271329 H 0.0 **** 0.06
26249 H 93.93996945473798 78.18230643021727 88.55069959290321 H 0.0 **** 0.06
26250 H 95.18892393981602 77.06603508298389 87.94835925543515 H 0.0 **** 0.06
26251 C 106.37556003477579 8.640861958184843 54.54456248679486 C 0.0 **** -0.24
26252 H 106.57092358703574 9.496618179550453 55.190254400274 H 0.0 **** 0.06
26253 H 105.3025381065404 8.551868532677346 54.37325911907112 H 0.0 **** 0.06
26254 H 106.744195159333 7.733416733903482 55.02302567776687 H 0.0 **** 0.06
26255 H 106.8860084058731 8.782504243939215 53.59192948723475 H 0.0 **** 0.06
26256 C 70.06177136421763 101.58908293010819 39.749754744940276 C 0.0 **** -0.24
26257 H 71.11116371636572 101.5372030745686 40.039065748430914 H 0.0 **** 0.06
26258 H 69.80374868610261 100.711107871528 39.157663707960495 H 0.0 **** 0.06
26259 H 69.89259356223192 102.48991554609563 39.15861496114911 H 0.0 **** 0.06
26260 H 69.4403890870658 101.62070897964054 40.64442649515382 H 0.0 **** 0.06
26261 C 52.8455288300022 75.97334589518944 85.09120028264847 C 0.0 **** -0.24
26262 H 53.366052122311686 76.33799658369135 85.97668607026687 H 0.0 **** 0.06
26263 H 52.10889287932381 75.22522792693745 85.38513686946406 H 0.0 **** 0.06
26264 H 53.564872599985215 75.52551444702671 84.40573093140416 H 0.0 **** 0.06
26265 H 52.342509071237906 76.80493191369561 84.598181518596 H 0.0 **** 0.06
26266 C 36.19459285388814 95.65518569003729 85.68267540630427 C 0.0 **** -0.24
26267 H 35.27004948891482 96.09412549877209 85.30825973306956 H 0.0 **** 0.06
26268 H 36.955477375074054 95.68929849737704 84.90221924446446 H 0.0 **** 0.06
26269 H 36.01445430543862 94.61953725374052 85.97001858638073 H 0.0 **** 0.06
26270 H 36.53894478428191 96.21941999241837 86.5502935140373 H 0.0 **** 0.06
26271 C 14.030589494116114 94.93880845493482 65.0050614832412 C 0.0 **** -0.24
26272 H 14.961502723252565 94.74578716232426 64.47174070152064 H 0.0 **** 0.06
26273 H 13.410908952978929 94.04200529654476 64.99078402059331 H 0.0 **** 0.06
26274 H 13.497626693264834 95.75685032483878 64.5213200027992 H 0.0 **** 0.06
26275 H 14.25281831949377 95.21037579976145 66.03724085393705 H 0.0 **** 0.06
26276 C 64.9213989338069 22.058882491151024 35.29372551357247 C 0.0 **** -0.24
26277 H 65.57397429962336 21.549020841015604 34.585153578602046 H 0.0 **** 0.06
26278 H 63.90834711912214 22.094400594928445 34.89319063875547 H 0.0 **** 0.06
26279 H 65.28427205399203 23.073597618169288 35.45620012506859 H 0.0 **** 0.06
26280 H 64.9186843015911 21.517197121970938 36.239941836056374 H 0.0 **** 0.06
26281 C 55.92685253400886 62.526780090818875 69.17077020117438 C 0.0 **** -0.24
26282 H 55.33589251062559 61.69021260137458 69.54256282762654 H 0.0 **** 0.06
26283 H 56.382104562164685 63.05176537894448 70.01087601011193 H 0.0 **** 0.06
26284 H 55.28225055806472 63.21120478382814 68.62071950723627 H 0.0 **** 0.06
26285 H 56.709920005725 62.15335678978329 68.50995166606114 H 0.0 **** 0.06
26286 C 12.231307740792772 11.885847825052622 103.22656795250138 C 0.0 **** -0.24
26287 H 12.854691609232475 12.748398767148785 103.46439600171573 H 0.0 **** 0.06
26288 H 12.540566122099506 11.468673362166328 102.26810384843087 H 0.0 **** 0.06
26289 H 11.188356687721978 12.19740574282713 103.16792088055635 H 0.0 **** 0.06
26290 H 12.342510163706436 11.13203008812134 104.0051522369236 H 0.0 **** 0.06
26291 C 102.34080805909163 90.8353788377644 84.69793135408415 C 0.0 **** -0.24
26292 H 102.00915138938386 89.9166980329072 85.18281194195356 H 0.0 **** 0.06
26293 H 102.75098369011953 91.51272431350861 85.44666945557103 H 0.0 **** 0.06
26294 H 101.49455079446012 91.31099741627744 84.202441387878 H 0.0 **** 0.06
26295 H 103.1085387515375 90.59933264856535 83.9607471781973 H 0.0 **** 0.06
26296 C 11.161201052454146 16.4345163633687 30.0102038307002 C 0.0 **** -0.24
26297 H 10.179766268040368 16.297585457486406 30.465579999189686 H 0.0 **** 0.06
26298 H 11.125420476180224 16.11654296975091 28.96824347779549 H 0.0 **** 0.06
26299 H 11.89619193194055 15.837375318568803 30.54809842599974 H 0.0 **** 0.06
26300 H 11.440321314014867 17.487056217503323 30.06092317968284 H 0.0 **** 0.06
26301 C 93.46036615101376 14.013926269390197 11.957910522421798 C 0.0 **** -0.24
26302 H 94.04246203752807 14.926058825138323 11.826250773954314 H 0.0 **** 0.06
26303 H 92.45062094398057 14.270980891488488 12.278187358484274 H 0.0 **** 0.06
26304 H 93.93342849081137 13.38751868477549 12.714247268367899 H 0.0 **** 0.06
26305 H 93.41594143570377 13.471819029794013 11.01371252480908 H 0.0 **** 0.06
26306 C 60.8651841202399 97.73735009789432 22.802427555513475 C 0.0 **** -0.24
26307 H 61.77826193217251 97.14524233778413 22.86726609078218 H 0.0 **** 0.06
26308 H 60.19088542488126 97.28619812814762 22.074224359246926 H 0.0 **** 0.06
26309 H 61.11297751185138 98.75193231831207 22.488712540419982 H 0.0 **** 0.06
26310 H 60.38125115728841 97.76654413954229 23.778178168074533 H 0.0 **** 0.06
26311 C 41.402576526447376 64.13643204480132 23.098084995213668 C 0.0 **** -0.24
26312 H 41.556113466188435 63.057819236731234 23.105925708073187 H 0.0 **** 0.06
26313 H 40.43973756841817 64.36295880761423 22.63955419155826 H 0.0 **** 0.06
26314 H 42.19975696260909 64.61226418247418 22.52553376513373 H 0.0 **** 0.06
26315 H 41.41599975837238 64.51322930117544 24.121223495901745 H 0.0 **** 0.06
26316 C 19.556885305860078 10.95378703859484 55.19431553023987 C 0.0 **** -0.24
26317 H 20.17787241120965 10.230670353330169 55.72179436372963 H 0.0 **** 0.06
26318 H 19.821269945002086 10.956323678987388 54.13649036887322 H 0.0 **** 0.06
26319 H 19.71950096803954 11.946586620657925 55.6130801585136 H 0.0 **** 0.06
26320 H 18.507053490732602 10.680309667098186 55.30576979144485 H 0.0 **** 0.06
26321 C 68.62745542782255 93.78244101550685 63.844307299605845 C 0.0 **** -0.24
26322 H 69.36716467974344 94.33081538322467 64.42745520151567 H 0.0 **** 0.06
26323 H 68.91836561972406 93.78411713284399 62.79361268144672 H 0.0 **** 0.06
26324 H 67.65382650352103 94.25996239322969 63.952915512012055 H 0.0 **** 0.06
26325 H 68.57043727266816 92.75564314590159 64.20442913051136 H 0.0 **** 0.06
26326 C 88.97341808651731 58.91871864729569 88.84548339832041 C 0.0 **** -0.24
26327 H 89.78002544196454 58.304445849830415 89.24575607358851 H 0.0 **** 0.06
26328 H 88.28464295655397 59.18285591107298 89.64809167471762 H 0.0 **** 0.06
26329 H 88.43809765058052 58.35987425697715 88.07739764849822 H 0.0 **** 0.06
26330 H 89.39007379978716 59.82675728762297 88.41003933164376 H 0.0 **** 0.06
26331 C 60.2742797521409 53.954072018156175 71.15833338693884 C 0.0 **** -0.24
26332 H 59.62472834248257 54.7950748939791 70.91181173962353 H 0.0 **** 0.06
26333 H 61.15281944194328 54.319469467369544 71.6909875611134 H 0.0 **** 0.06
26334 H 60.58609934390353 53.45520282696916 70.24150095175018 H 0.0 **** 0.06
26335 H 59.73292948888957 53.25038850530429 71.79041257301608 H 0.0 **** 0.06
26336 C 26.790374114959803 4.140487485913113 45.725948087633896 C 0.0 **** -0.24
26337 H 27.86059903346475 3.937429035239603 45.68687637856229 H 0.0 **** 0.06
26338 H 26.24497733532388 3.197207822396777 45.78232754141797 H 0.0 **** 0.06
26339 H 26.490562161885265 4.680172014749402 44.82809839444704 H 0.0 **** 0.06
26340 H 26.566537126759727 4.742804122262569 46.60514788133847 H 0.0 **** 0.06
26341 C 50.59252416738542 102.5470797561459 36.76547437604242 C 0.0 **** -0.24
26342 H 51.324800655109186 102.08703461305741 37.430041441413834 H 0.0 **** 0.06
26343 H 49.822146301927404 101.81799095138788 36.51443819331169 H 0.0 **** 0.06
26344 H 51.089413258053156 102.88020148279745 35.853428912569655 H 0.0 **** 0.06
26345 H 50.136590314698736 103.40217048979983 37.26390675690345 H 0.0 **** 0.06
26346 C 36.05010733383121 59.24047473996998 11.054753743469458 C 0.0 **** -0.24
26347 H 35.47744939022851 58.48287559999167 10.52072557669957 H 0.0 **** 0.06
26348 H 36.02867671060313 60.17516774614728 10.493955702295013 H 0.0 **** 0.06
26349 H 37.08258245059009 58.90535428756067 11.163115234424527 H 0.0 **** 0.06
26350 H 35.61372318516622 59.39709090626678 12.041255624109501 H 0.0 **** 0.06
26351 C 40.65201622730113 26.88934803958395 40.85611418667139 C 0.0 **** -0.24
26352 H 41.68606118252192 27.054821563546227 40.55531823431173 H 0.0 **** 0.06
26353 H 40.422124141761465 27.5095669252525 41.7223900453763 H 0.0 **** 0.06
26354 H 40.510807853738974 25.83920244877865 41.112188688756675 H 0.0 **** 0.06
26355 H 39.98840845778982 27.15528412207243 40.03272638019709 H 0.0 **** 0.06
26356 C 54.93319088651202 24.6482273463958 42.14849737811036 C 0.0 **** -0.24
26357 H 55.13303314122955 24.08994445393685 41.234740341553305 H 0.0 **** 0.06
26358 H 54.420889715247775 24.003746869834373 42.86324779533027 H 0.0 **** 0.06
26359 H 54.3026610908428 25.507598504696062 41.917434270707275 H 0.0 **** 0.06
26360 H 55.87410685376942 24.992681821387578 42.57780842228027 H 0.0 **** 0.06
26361 C 90.60115974685331 103.30006759959673 34.58718262858804 C 0.0 **** -0.24
26362 H 90.8266796328787 102.23352382672971 34.569607202604885 H 0.0 **** 0.06
26363 H 91.16416694954938 103.77725450903318 35.38880361920769 H 0.0 **** 0.06
26364 H 89.53408836990573 103.44320835942256 34.75574443005456 H 0.0 **** 0.06
26365 H 90.8803054153864 103.74481568586839 33.632028955105625 H 0.0 **** 0.06
26366 C 104.47856613747848 96.44481355161423 16.242207357437792 C 0.0 **** -0.24
26367 H 105.34132325808383 96.24770899357136 15.605518522162981 H 0.0 **** 0.06
26368 H 103.90102318252903 97.26998193828518 15.825067101919387 H 0.0 **** 0.06
26369 H 104.81880752146375 96.70821364252654 17.243670736012916 H 0.0 **** 0.06
26370 H 103.85325482047045 95.55307539379186 16.29319318473 H 0.0 **** 0.06
26371 C 92.82646193567777 32.453650181367095 69.87438679017197 C 0.0 **** -0.24
26372 H 92.55541642739914 32.61378665673695 70.91748424757708 H 0.0 **** 0.06
26373 H 93.4950131191124 31.595223062979272 69.80021831533816 H 0.0 **** 0.06
26374 H 93.33030672101134 33.34084369343634 69.48998226236392 H 0.0 **** 0.06
26375 H 91.92578535415092 32.26548219695033 69.2899390019951 H 0.0 **** 0.06
26376 C 59.20367775348541 9.437201655286415 20.998836058877032 C 0.0 **** -0.24
26377 H 58.67598616736535 9.593254099332839 21.939672881333166 H 0.0 **** 0.06
26378 H 58.72703749624043 10.024962335749137 20.21349077467744 H 0.0 **** 0.06
26379 H 59.168953886770794 8.380477847935921 20.73373653519735 H 0.0 **** 0.06
26380 H 60.24215562703961 9.7506559714395 21.107835263698746 H 0.0 **** 0.06
26381 C 66.82183071095591 86.80068249529259 10.012499004785496 C 0.0 **** -0.24
26382 H 66.37067438016021 86.71215483660477 9.02432011627377 H 0.0 **** 0.06
26383 H 66.10689804624553 87.25285050389897 10.6993192487692 H 0.0 **** 0.06
26384 H 67.7124698599875 87.42612868383989 9.94913739137084 H 0.0 **** 0.06
26385 H 67.09834927187205 85.8109142427981 10.374322095852932 H 0.0 **** 0.06
26386 C 54.68243413237491 62.108743153432414 1.2380571050451863 C 0.0 **** -0.24
26387 H 55.18276674404899 61.141621352602556 1.2766623295350996 H 0.0 **** 0.06
26388 H 54.02468078848267 62.2126812798048 2.101645643393951 H 0.0 **** 0.06
26389 H 54.09502997995742 62.17710441536977 0.3230233590768563 H 0.0 **** 0.06
26390 H 55.428198828674965 62.90398908328464 1.2518653232707493 H 0.0 **** 0.06
26391 C 77.4472011308743 42.712645801011604 90.25932927760311 C 0.0 **** -0.24
26392 H 76.59176713931936 42.17838214734152 90.67548170996123 H 0.0 **** 0.06
26393 H 78.04063657788276 42.028980727331145 89.65222784780657 H 0.0 **** 0.06
26394 H 78.05968151480602 43.10399882482406 91.07152216734457 H 0.0 **** 0.06
26395 H 77.09432136009019 43.536973988820705 89.64057524089296 H 0.0 **** 0.06
26396 C 36.03643502994936 62.82139509233531 33.01939556012499 C 0.0 **** -0.24
26397 H 35.32595863891752 63.64009164347908 33.128468510778816 H 0.0 **** 0.06
26398 H 37.00696983994235 63.22057778405264 32.723395382337685 H 0.0 **** 0.06
26399 H 35.68011555402278 62.13051499847887 32.25538716424742 H 0.0 **** 0.06
26400 H 36.13440771552869 62.29458168643629 33.968588741379335 H 0.0 **** 0.06
26401 C 99.41946209112923 52.43642857144596 15.773485028153743 C 0.0 **** -0.24
26402 H 99.50609956703876 51.49110826869577 16.3094040439057 H 0.0 **** 0.06
26403 H 100.26781698598049 52.54923436122763 15.098573533357282 H 0.0 **** 0.06
26404 H 99.4121555352445 53.25923633695078 16.48857013974515 H 0.0 **** 0.06
26405 H 98.49365027889213 52.44542954529496 15.199389985679147 H 0.0 **** 0.06
26406 C 101.14684863518214 92.03381224430542 4.459044851148178 C 0.0 **** -0.24
26407 H 100.77347114100269 91.75112343979804 5.443829620012082 H 0.0 **** 0.06
26408 H 102.22417543847479 91.87328403216317 4.420078828618898 H 0.0 **** 0.06
26409 H 100.92944233027295 93.08634227425667 4.276779244785416 H 0.0 **** 0.06
26410 H 100.66067287562888 91.42470226103303 3.69790504630879 H 0.0 **** 0.06
26411 C 51.10075499214395 13.267821889626418 101.94926322256146 C 0.0 **** -0.24
26412 H 51.56529839142604 12.563347262112984 101.2597658632369 H 0.0 **** 0.06
26413 H 51.09009657850737 12.839359866856796 102.95195232965479 H 0.0 **** 0.06
26414 H 50.07879701338857 13.469321552863505 101.62845412951914 H 0.0 **** 0.06
26415 H 51.669598288368036 14.197168428371242 101.95707263358315 H 0.0 **** 0.06
26416 C 66.81277599639108 57.85028596177687 1.0108471554051421 C 0.0 **** -0.24
26417 H 67.35276078674212 57.74802221487095 1.9521155847509801 H 0.0 **** 0.06
26418 H 65.78277048281942 57.51796382753736 1.1459856690551264 H 0.0 **** 0.06
26419 H 67.29479897211823 57.239325717445944 0.24752995673947398 H 0.0 **** 0.06
26420 H 66.82056347582781 58.893866350250136 0.6988023491691031 H 0.0 **** 0.06
26421 C 5.230184201089386 100.20369891328747 15.3771258322692 C 0.0 **** -0.24
26422 H 5.4510011160864025 101.26160491887231 15.517395064678055 H 0.0 **** 0.06
26423 H 6.072750979493549 99.6069591840309 15.726484709598708 H 0.0 **** 0.06
26424 H 5.0575646130062495 100.00597829763066 14.319701747927809 H 0.0 **** 0.06
26425 H 4.337354674083031 99.94102393905231 15.945989679503072 H 0.0 **** 0.06
26426 C 44.16416844280254 36.95528173082573 15.117301572834446 C 0.0 **** -0.24
26427 H 44.72695147169028 37.82749370515006 14.784997145536039 H 0.0 **** 0.06
26428 H 43.403809491513435 37.26551253541004 15.834114536784632 H 0.0 **** 0.06
26429 H 44.84233193615903 36.24529631908092 15.591596562534374 H 0.0 **** 0.06
26430 H 43.68492585609451 36.482777931757596 14.260283849297316 H 0.0 **** 0.06
26431 C 39.02863895017592 86.18512454881238 49.919991211255706 C 0.0 **** -0.24
26432 H 38.403756265835966 85.90286343267834 50.76780017469662 H 0.0 **** 0.06
26433 H 39.390469217825725 85.28673330149162 49.420244559116554 H 0.0 **** 0.06
26434 H 39.876602127285935 86.77165715178468 50.2732767227094 H 0.0 **** 0.06
26435 H 38.442967586809885 86.78028440519957 49.219800895222306 H 0.0 **** 0.06
26436 C 5.21344522564274 63.48177480437403 46.12218168376319 C 0.0 **** -0.24
26437 H 5.736301743434582 62.95235229076991 46.919226607264775 H 0.0 **** 0.06
26438 H 4.859891959715597 62.764630327061695 45.38129869790036 H 0.0 **** 0.06
26439 H 5.893996608378069 64.18876983592594 45.64765396999445 H 0.0 **** 0.06
26440 H 4.363427603498278 64.02052643548109 46.54168789345384 H 0.0 **** 0.06
26441 C 75.05988957900581 67.35608252471498 104.87570784171288 C 0.0 **** -0.24
26442 H 76.07198137647558 67.55932997386124 105.22460659699288 H 0.0 **** 0.06
26443 H 74.34326197191848 67.85138574466022 105.530268965522 H 0.0 **** 0.06
26444 H 74.88153018582852 66.28029708391784 104.88848963237683 H 0.0 **** 0.06
26445 H 74.94433071501777 67.73053354537133 103.85853809485576 H 0.0 **** 0.06
26446 C 31.479630402327473 103.20924850428402 24.030053874138915 C 0.0 **** -0.24
26447 H 30.93407608692226 103.49287936331379 23.13041967043017 H 0.0 **** 0.06
26448 H 31.526845041314772 102.12184657669737 24.09918125724718 H 0.0 **** 0.06
26449 H 30.965713111836067 103.60691160027469 24.906288361485977 H 0.0 **** 0.06
26450 H 32.48992599606595 103.61494441952141 23.985317900027525 H 0.0 **** 0.06
26451 C 93.39438626822141 105.71234220051899 25.66564906863522 C 0.0 **** -0.24
26452 H 93.06239944316924 104.86611312625088 25.063549539313073 H 0.0 **** 0.06
26453 H 93.86224449071705 105.34743189930113 26.579373758910037 H 0.0 **** 0.06
26454 H 92.53691077095907 106.33666033443433 25.918764442879223 H 0.0 **** 0.06
26455 H 94.11561617153735 106.30020584678608 25.097334458159537 H 0.0 **** 0.06
26456 C 25.50755854872503 23.682248833419138 22.96900870413586 C 0.0 **** -0.24
26457 H 25.329587112990396 23.12515625051924 22.048983842292273 H 0.0 **** 0.06
26458 H 26.490284223974783 24.150668500985603 22.925317489588082 H 0.0 **** 0.06
26459 H 25.467748117929887 23.000286993589683 23.819045725288674 H 0.0 **** 0.06
26460 H 24.74229480232583 24.44943520443124 23.082605059890938 H 0.0 **** 0.06
26461 C 85.26933067012715 106.66793282226958 72.6593813659329 C 0.0 **** -0.24
26462 H 86.26251488655184 106.32946629825355 72.95588982782756 H 0.0 **** 0.06
26463 H 84.64261388069342 106.77450143584016 73.54455642409842 H 0.0 **** 0.06
26464 H 84.82349336621361 105.9379347135723 71.98410694260522 H 0.0 **** 0.06
26465 H 85.3499825744913 107.63006905658087 72.15351889009976 H 0.0 **** 0.06
26466 C 73.54842879589404 20.96494857960269 84.41353388706712 C 0.0 **** -0.24
26467 H 74.04555718288287 20.485317422510775 83.57031977936998 H 0.0 **** 0.06
26468 H 72.6293706062368 20.426919497108088 84.64674726028358 H 0.0 **** 0.06
26469 H 73.31070635159794 21.99721219627068 84.15564903940206 H 0.0 **** 0.06
26470 H 74.20968504753463 20.950043083098194 85.27989103109049 H 0.0 **** 0.06
26471 C 14.370670317972923 39.43764670978247 16.32085989206668 C 0.0 **** -0.24
26472 H 13.514744290696715 39.633025508279246 16.967229360704593 H 0.0 **** 0.06
26473 H 14.059089088422457 39.501730237277755 15.278327329324867 H 0.0 **** 0.06
26474 H 14.75943481772121 38.44019187038302 16.524019136710706 H 0.0 **** 0.06
26475 H 15.147947377656912 40.1770995348175 16.514711946300665 H 0.0 **** 0.06
26476 C 62.393417527052776 31.032325305140006 72.11745569103476 C 0.0 **** -0.24
26477 H 61.7216730518648 31.796634291159222 72.50918503143131 H 0.0 **** 0.06
26478 H 63.386794049216945 31.459689841857937 71.9766707542238 H 0.0 **** 0.06
26479 H 62.01453352846116 30.671487167616505 71.1616385398768 H 0.0 **** 0.06
26480 H 62.45030915411422 30.203224408555883 72.82140005312593 H 0.0 **** 0.06
26481 C 54.845452971529255 66.61385720945795 3.999586322460601 C 0.0 **** -0.24
26482 H 55.17241490810369 67.56362930650893 3.5749386827007754 H 0.0 **** 0.06
26483 H 53.85760909370214 66.735908807444 4.444995835907434 H 0.0 **** 0.06
26484 H 55.55287212649381 66.2964843314933 4.765598917286297 H 0.0 **** 0.06
26485 H 54.79997762580291 65.86130913454403 3.2133140878568724 H 0.0 **** 0.06
26486 C 42.63535390569763 92.78224029127063 3.4668306117302876 C 0.0 **** -0.24
26487 H 43.18821938087271 93.58255087038845 3.9573399272476877 H 0.0 **** 0.06
26488 H 41.57674569646693 92.8695417771853 3.7115913536324996 H 0.0 **** 0.06
26489 H 43.010672317881244 91.81833007623084 3.809445352270501 H 0.0 **** 0.06
26490 H 42.765812219220095 92.85947063066243 2.3869135495751266 H 0.0 **** 0.06
26491 C 67.4936126035528 99.12186213365435 6.61370192426115 C 0.0 **** -0.24
26492 H 67.38494211288744 98.70584610989488 5.611754255570645 H 0.0 **** 0.06
26493 H 66.78516808107781 98.6388202174062 7.286704580601679 H 0.0 **** 0.06
26494 H 67.29581380391122 100.19290896008745 6.58527675333022 H 0.0 **** 0.06
26495 H 68.50963730395765 98.94922317706876 6.9699130235849935 H 0.0 **** 0.06
26496 C 77.31629051553367 73.02704875300161 103.87677843551808 C 0.0 **** -0.24
26497 H 77.83662315235995 73.97873227933573 103.76789717337624 H 0.0 **** 0.06
26498 H 76.29426021331773 73.12880518479547 103.51100743584246 H 0.0 **** 0.06
26499 H 77.30002478863761 72.74079357886997 104.92853226700328 H 0.0 **** 0.06
26500 H 77.83469692758612 72.26204478342486 103.29989598269842 H 0.0 **** 0.06
26501 C 7.883354490212582 45.04905292195824 3.76991057914708 C 0.0 **** -0.24
26502 H 7.75665227955642 44.20149311966491 4.443810170558663 H 0.0 **** 0.06
26503 H 8.01769526777366 45.95962422089619 4.354387443063814 H 0.0 **** 0.06
26504 H 6.999092300527707 45.148243304733846 3.1405209181833698 H 0.0 **** 0.06
26505 H 8.75962617234859 44.88698870485824 3.142614147173475 H 0.0 **** 0.06
26506 C 17.240826391659226 78.35722675140951 92.4649699797161 C 0.0 **** -0.24
26507 H 17.906683915089673 78.48516894878514 93.31860237992163 H 0.0 **** 0.06
26508 H 17.08917639176849 79.3196235536401 91.97516652283247 H 0.0 **** 0.06
26509 H 16.281984625110624 77.96833438530462 92.8064371973141 H 0.0 **** 0.06
26510 H 17.686202239760576 77.65675233031317 91.75844704943302 H 0.0 **** 0.06
26511 C 89.37664660486769 71.23037645807969 38.4259289152341 C 0.0 **** -0.24
26512 H 88.95550684460557 71.09631587708017 39.42255963586021 H 0.0 **** 0.06
26513 H 89.71783074858945 70.26748959383346 38.04424576605336 H 0.0 **** 0.06
26514 H 90.2184330877509 71.91988382729406 38.478309740763926 H 0.0 **** 0.06
26515 H 88.61421299068672 71.6352403384021 37.76124637452586 H 0.0 **** 0.06
26516 C 89.24190625035754 38.36243437677015 49.339921241349195 C 0.0 **** -0.24
26517 H 88.73420295853042 39.04169502856706 50.02329957900684 H 0.0 **** 0.06
26518 H 88.59567439577906 37.509892815492805 49.12730643742927 H 0.0 **** 0.06
26519 H 90.16800861113893 38.01196113283635 49.797741863143365 H 0.0 **** 0.06
26520 H 89.47074248674411 38.88519237439965 48.411307891372495 H 0.0 **** 0.06
26521 C 36.928146054283985 49.08722761309849 10.657814942297492 C 0.0 **** -0.24
26522 H 37.832766607644714 48.4925862095223 10.52828891787297 H 0.0 **** 0.06
26523 H 36.431524506418185 49.20717887190801 9.694851572809782 H 0.0 **** 0.06
26524 H 37.191209730095295 50.066654681724 11.056431040149121 H 0.0 **** 0.06
26525 H 36.25782802282956 48.580393555532396 11.35271186089679 H 0.0 **** 0.06
26526 C 101.29483301077114 91.336136200453 58.65068644028281 C 0.0 **** -0.24
26527 H 101.02099792581635 90.30513732398894 58.42628862549415 H 0.0 **** 0.06
26528 H 101.92155850893921 91.36053510325549 59.54212827701713 H 0.0 **** 0.06
26529 H 100.39083955388463 91.92161047294343 58.82590211404843 H 0.0 **** 0.06
26530 H 101.8431647944671 91.7579234156433 57.80936638906485 H 0.0 **** 0.06
26531 C 63.874575371299 102.25263715031227 4.1506224092792365 C 0.0 **** -0.24
26532 H 63.116967201172244 101.83406565206892 3.488082244437905 H 0.0 **** 0.06
26533 H 63.39602122371028 102.90071509973365 4.884936792052031 H 0.0 **** 0.06
26534 H 64.58873775482931 102.831884519146 3.5653726493088413 H 0.0 **** 0.06
26535 H 64.39612131652277 101.4445947594875 4.662963114487965 H 0.0 **** 0.06
26536 C 55.517797515600705 9.094529094890177 88.36275973849871 C 0.0 **** -0.24
26537 H 56.56861398999712 9.056107321887978 88.07745610177511 H 0.0 **** 0.06
26538 H 54.94905884359014 9.603846279311867 87.58455150604033 H 0.0 **** 0.06
26539 H 55.4167479573523 9.63994103924702 89.30209918427329 H 0.0 **** 0.06
26540 H 55.13803501950741 8.080964908710584 88.48786670079448 H 0.0 **** 0.06
26541 C 51.30156273354729 18.345184954583914 13.0448575134929 C 0.0 **** -0.24
26542 H 50.2990792078068 18.422435522888605 12.623208528648263 H 0.0 **** 0.06
26543 H 51.28273573627938 17.67801700541402 13.906296515023513 H 0.0 **** 0.06
26544 H 51.64194596633161 19.33249180682077 13.355823920561818 H 0.0 **** 0.06
26545 H 51.98221470153459 17.947022669590325 12.29121537124783 H 0.0 **** 0.06
26546 C 71.5753845702823 42.92806450471653 31.30434782640222 C 0.0 **** -0.24
26547 H 70.94696814553114 42.04288996279229 31.405869077431703 H 0.0 **** 0.06
26548 H 72.1199412377376 42.87989972577458 30.36177588724601 H 0.0 **** 0.06
26549 H 72.28275268223231 42.967182694190114 32.132528853736716 H 0.0 **** 0.06
26550 H 70.94981977665262 43.8201313739101 31.319482626878425 H 0.0 **** 0.06
26551 C 45.02305183746347 25.72716113829169 20.944198747651015 C 0.0 **** -0.24
26552 H 45.73730384800206 25.924032305652858 21.742926147872893 H 0.0 **** 0.06
26553 H 44.13311689548448 26.33930162803135 21.093170434634004 H 0.0 **** 0.06
26554 H 44.74410813999759 24.672918949519882 20.957411944352543 H 0.0 **** 0.06
26555 H 45.47564722200303 25.971062613824074 19.983614994400668 H 0.0 **** 0.06
26556 C 99.30082136134246 60.90491334470495 101.5765578268733 C 0.0 **** -0.24
26557 H 100.09908384718506 60.30747436021141 102.01632634036093 H 0.0 **** 0.06
26558 H 99.68809875459837 61.88978583902451 101.31350812390126 H 0.0 **** 0.06
26559 H 98.49056131789388 61.014009047891506 102.29682545466693 H 0.0 **** 0.06
26560 H 98.92745308242439 60.408803723226406 100.6810445382832 H 0.0 **** 0.06
26561 C 40.27016869823571 0.6288460843793047 90.55959761587843 C 0.0 **** -0.24
26562 H 40.66676732856995 -0.35429391946343003 90.81239981311766 H 0.0 **** 0.06
26563 H 39.32443968516866 0.5133288633377049 90.02925418505119 H 0.0 **** 0.06
26564 H 40.98173783702853 1.1544183892597744 89.92314589071333 H 0.0 **** 0.06
26565 H 40.10804159129195 1.201117257236831 91.47247667045873 H 0.0 **** 0.06
26566 C 87.11644775395494 3.5634834447170363 14.26207882971994 C 0.0 **** -0.24
26567 H 86.24210655930494 4.119753956441002 14.598926372273127 H 0.0 **** 0.06
26568 H 87.04099597611713 2.529356977288984 14.598979719221745 H 0.0 **** 0.06
26569 H 88.01660372151544 4.016488116304458 14.676815711539007 H 0.0 **** 0.06
26570 H 87.16524677345232 3.589007248553031 13.172673956308813 H 0.0 **** 0.06
26571 C 10.454033104186223 66.94348410174575 9.36557844876532 C 0.0 **** -0.24
26572 H 10.491692739006538 67.51132271908938 10.295024384048418 H 0.0 **** 0.06
26573 H 10.18403390007795 65.90999087621447 9.583238511200477 H 0.0 **** 0.06
26574 H 11.431760373330079 66.971070361746 8.883710074803787 H 0.0 **** 0.06
26575 H 9.710213935671021 67.38242504342338 8.70167443674913 H 0.0 **** 0.06
26576 C 99.26809626115336 10.106786025692259 28.15498936153986 C 0.0 **** -0.24
26577 H 98.40068205958798 9.878282471613943 28.77445239322401 H 0.0 **** 0.06
26578 H 98.97195627876786 10.776475392128361 27.34816662603697 H 0.0 **** 0.06
26579 H 99.66661671590663 9.183744988688659 27.734379825832207 H 0.0 **** 0.06
26580 H 100.03283758251834 10.5884803820191 28.765169675303213 H 0.0 **** 0.06
26581 C 29.717167444698617 63.16627151332672 5.788164305358237 C 0.0 **** -0.24
26582 H 30.76196321396435 63.310797757084615 5.511307446611809 H 0.0 **** 0.06
26583 H 29.652869456181037 62.93328538399949 6.850559191125853 H 0.0 **** 0.06
26584 H 29.29862882110794 62.34256105631347 5.208868816003289 H 0.0 **** 0.06
26585 H 29.157272477031142 64.07752020646647 5.580221752269139 H 0.0 **** 0.06
26586 C 106.34353823666497 91.57074244647698 86.81670453701605 C 0.0 **** -0.24
26587 H 106.90721218190096 91.17987972850261 85.96921957818319 H 0.0 **** 0.06
26588 H 106.91329321498822 91.41673238153714 87.7329686155339 H 0.0 **** 0.06
26589 H 105.38875383584669 91.04919658757028 86.88970050528883 H 0.0 **** 0.06
26590 H 106.1651942139394 92.63609308318286 86.67359933516877 H 0.0 **** 0.06
26591 C 37.730011475310285 78.1446805599156 42.840314499679465 C 0.0 **** -0.24
26592 H 37.35849047731448 77.57437328624846 41.988804382175715 H 0.0 **** 0.06
26593 H 36.88606461862201 78.5330438166192 43.412295696382444 H 0.0 **** 0.06
26594 H 38.33995884772437 78.97382941710316 42.48337608940662 H 0.0 **** 0.06
26595 H 38.33308361915961 77.49744560287908 43.47671106180087 H 0.0 **** 0.06
26596 C 100.37743881001352 102.20752757964283 24.79043163531776 C 0.0 **** -0.24
26597 H 101.38396627317398 102.4126318522325 24.424291686434856 H 0.0 **** 0.06
26598 H 99.6481459844798 102.66664819280015 24.123051726784894 H 0.0 **** 0.06
26599 H 100.26478802600381 102.62012304418181 25.79290681236995 H 0.0 **** 0.06
26600 H 100.21555121174669 101.13016675015479 24.820276939279637 H 0.0 **** 0.06
26601 C 93.8640644954399 87.34931050304809 5.919722602772481 C 0.0 **** -0.24
26602 H 93.18281958615387 87.26841749060176 6.765583885770212 H 0.0 **** 0.06
26603 H 93.30274014770414 87.62212174101661 5.025862026091346 H 0.0 **** 0.06
26604 H 94.35990697922333 86.39189547618861 5.758708876931024 H 0.0 **** 0.06
26605 H 94.61201134724539 88.11451373069498 6.1280834606039605 H 0.0 **** 0.06
26606 C 88.10867539074113 5.902320443485891 103.07364150874054 C 0.0 **** -0.24
26607 H 88.04493461526228 6.581138596904012 103.92366956902288 H 0.0 **** 0.06
26608 H 89.12180947866678 5.506672330543978 102.99992846976312 H 0.0 **** 0.06
26609 H 87.86177680766593 6.441750818791277 102.1592342327842 H 0.0 **** 0.06
26610 H 87.40568993929661 5.080842223422962 103.2110266843927 H 0.0 **** 0.06
26611 C 10.260220081138868 106.73138122405658 9.235824446109518 C 0.0 **** -0.24
26612 H 9.834230290930805 107.25556819689943 10.091853923359452 H 0.0 **** 0.06
26613 H 9.55384422597325 106.75795193655405 8.40615894011296 H 0.0 **** 0.06
26614 H 10.463000399346129 105.69646248480132 9.508257877256824 H 0.0 **** 0.06
26615 H 11.188896669950225 107.21806069726796 8.937939253789807 H 0.0 **** 0.06
26616 C 61.97426332739079 100.63467729594828 86.50231127799718 C 0.0 **** -0.24
26617 H 62.81264296415887 100.7636917238404 85.81823705631028 H 0.0 **** 0.06
26618 H 61.44818956554039 101.58261277253632 86.61521139150175 H 0.0 **** 0.06
26619 H 62.34548158760606 100.30658711557732 87.47364107888589 H 0.0 **** 0.06
26620 H 61.291904140986134 99.88481539290643 86.10135641697859 H 0.0 **** 0.06
26621 C 19.85085434850714 77.96924572199069 18.09059816362491 C 0.0 **** -0.24
26622 H 19.70021207301272 77.10740504048741 18.74072911443379 H 0.0 **** 0.06
26623 H 20.905593870396956 78.24625228275565 18.09415695792371 H 0.0 **** 0.06
26624 H 19.25382112116462 78.80587088430275 18.452972765704708 H 0.0 **** 0.06
26625 H 19.544012846703083 77.71701143176774 17.075402184307308 H 0.0 **** 0.06
26626 C 77.42003283322548 52.435041272955196 61.206871773816005 C 0.0 **** -0.24
26627 H 77.0619488208508 53.3829268440986 61.60749185589546 H 0.0 **** 0.06
26628 H 76.93114032675751 52.236173186473174 60.25347821294244 H 0.0 **** 0.06
26629 H 77.18820170319286 51.633696344654425 61.90793761068059 H 0.0 **** 0.06
26630 H 78.49884048210099 52.487368716594695 61.058579415745214 H 0.0 **** 0.06
26631 C 56.150102576140235 36.099671588121424 80.35773325008522 C 0.0 **** -0.24
26632 H 56.56568145781881 35.09643321366852 80.45040282211325 H 0.0 **** 0.06
26633 H 55.19469274888881 36.05005711622789 79.8361250268513 H 0.0 **** 0.06
26634 H 56.83955058932716 36.727492679874985 79.79398793126899 H 0.0 **** 0.06
26635 H 56.001813444916735 36.52436462005733 81.35076642491842 H 0.0 **** 0.06
26636 C 71.42210363538237 23.883902204685654 101.72458588053429 C 0.0 **** -0.24
26637 H 71.83078350440923 23.01194743698909 102.23668003432212 H 0.0 **** 0.06
26638 H 72.09570917679315 24.18219696299903 100.92188639095001 H 0.0 **** 0.06
26639 H 71.31593210177687 24.704870475959595 102.43446929393502 H 0.0 **** 0.06
26640 H 70.44535851393817 23.635407495498782 101.30799001982743 H 0.0 **** 0.06
26641 C 75.62904738305355 28.02791173230537 66.11745204262692 C 0.0 **** -0.24
26642 H 76.3382810925537 28.652561631279326 65.57555934244789 H 0.0 **** 0.06
26643 H 74.90489794835298 27.609924120335336 65.41780450048589 H 0.0 **** 0.06
26644 H 75.10878712537861 28.63024730489559 66.86166759892413 H 0.0 **** 0.06
26645 H 76.16335124181884 27.217820430041513 66.6149861916805 H 0.0 **** 0.06
26646 C 10.384288110526057 29.72869386916242 3.1821650678650713 C 0.0 **** -0.24
26647 H 11.250291077225185 30.364187795459713 2.9943164997507097 H 0.0 **** 0.06
26648 H 10.104015605382159 29.2169963181896 2.2610756703356287 H 0.0 **** 0.06
26649 H 9.55134371015589 30.34128668805767 3.5257554143390735 H 0.0 **** 0.06
26650 H 10.633611682279536 28.99165570904374 3.9448426973903565 H 0.0 **** 0.06
26651 C 6.525879806644241 16.209615174151367 2.5603599249262743 C 0.0 **** -0.24
26652 H 5.5271393869522285 16.088181925592465 2.1417094506749095 H 0.0 **** 0.06
26653 H 6.5080574470004535 16.99194139188168 3.319565291997435 H 0.0 **** 0.06
26654 H 7.221143756812808 16.48762670778696 1.7689723573022889 H 0.0 **** 0.06
26655 H 6.846236577769901 15.27104799220183 3.0126064170557925 H 0.0 **** 0.06
26656 C 40.723148639507 76.59122765957682 8.98659509081098 C 0.0 **** -0.24
26657 H 41.619466043269796 77.20282422463261 8.878569599636592 H 0.0 **** 0.06
26658 H 40.99445210590545 75.5364624995751 8.933816010549364 H 0.0 **** 0.06
26659 H 40.02355749414235 76.82812024650937 8.184795331597499 H 0.0 **** 0.06
26660 H 40.256003663947695 76.7979696894174 9.949190014440987 H 0.0 **** 0.06
26661 C 28.59887304705012 21.450403282901448 56.87630522351125 C 0.0 **** -0.24
26662 H 29.46410990756462 20.839358821632658 56.616292495833854 H 0.0 **** 0.06
26663 H 28.30402697129898 22.046209313930063 56.01211097328663 H 0.0 **** 0.06
26664 H 28.856642212508405 22.11159848550585 57.70274917262416 H 0.0 **** 0.06
26665 H 27.77296864246972 20.803289524154366 57.17131606389093 H 0.0 **** 0.06
26666 C 4.602290170201968 44.64559729090112 18.116402478289046 C 0.0 **** -0.24
26667 H 4.253279664201386 44.579168882949546 17.08572568141534 H 0.0 **** 0.06
26668 H 5.361761036129451 43.88306746466253 18.29283953191657 H 0.0 **** 0.06
26669 H 3.7636777991957047 44.487302650328104 18.79479751492346 H 0.0 **** 0.06
26670 H 5.0299541357351245 45.632940920856385 18.291379071377946 H 0.0 **** 0.06
26671 C 8.05806164117007 56.2110097042751 65.6583289775374 C 0.0 **** -0.24
26672 H 7.62930305547018 55.22743053699397 65.84626176890657 H 0.0 **** 0.06
26673 H 7.516488771935128 56.960471988513554 66.23497773735409 H 0.0 **** 0.06
26674 H 7.980317376418581 56.443370242384084 64.59604646602463 H 0.0 **** 0.06
26675 H 9.107296208911182 56.21228059667959 65.9541801710497 H 0.0 **** 0.06
26676 C 94.35334829568275 35.50553455662772 80.64068088127462 C 0.0 **** -0.24
26677 H 94.71452586840412 34.95348393728229 81.50827501098581 H 0.0 **** 0.06
26678 H 93.96015113806759 36.470736572775444 80.96210091216341 H 0.0 **** 0.06
26679 H 93.56468313043 34.93602520074648 80.14974501644414 H 0.0 **** 0.06
26680 H 95.17616761115137 35.662556697507284 79.94255039679751 H 0.0 **** 0.06
26681 C 91.78673654893724 9.479403971328964 49.399968264310914 C 0.0 **** -0.24
26682 H 91.30915308474385 9.48339713150824 48.42099036728575 H 0.0 **** 0.06
26683 H 91.0522809478076 9.732819969959564 50.164461566124075 H 0.0 **** 0.06
26684 H 92.59318982715173 10.21222654769332 49.414140970674566 H 0.0 **** 0.06
26685 H 92.19376638374062 8.487439088066992 49.60123472125411 H 0.0 **** 0.06
26686 C 6.108998269906408 57.17173923315136 21.50177580527094 C 0.0 **** -0.24
26687 H 6.677114859928167 57.53722789603182 22.357058958960224 H 0.0 **** 0.06
26688 H 6.763192489889434 57.1094387046798 20.6319917593476 H 0.0 **** 0.06
26689 H 5.288750964155952 57.857613200853734 21.29062668317377 H 0.0 **** 0.06
26690 H 5.708205763484784 56.18320414109081 21.72709883793371 H 0.0 **** 0.06
26691 C 2.385437592305209 11.683588401767338 38.749088971653634 C 0.0 **** -0.24
26692 H 1.5571839097801217 11.941184158080318 39.40922227070115 H 0.0 **** 0.06
26693 H 2.0093860165393664 11.527972647661642 37.73785474439444 H 0.0 **** 0.06
26694 H 2.861856291959583 10.768977031942825 39.1051115419163 H 0.0 **** 0.06
26695 H 3.1134522585639672 12.494474394909503 38.74680128420738 H 0.0 **** 0.06
26696 C 20.704412018213233 53.19741004809035 17.43078257197223 C 0.0 **** -0.24
26697 H 21.68766873729824 52.99545244332853 17.00462167774208 H 0.0 **** 0.06
26698 H 20.1486837881325 52.26344789381433 17.51686134733123 H 0.0 **** 0.06
26699 H 20.162997543128753 53.885432081611405 16.7823408219499 H 0.0 **** 0.06
26700 H 20.82140403283057 53.642972765532136 18.417927634558424 H 0.0 **** 0.06
26701 C 10.680590715712384 37.48324025255306 47.07297166617595 C 0.0 **** -0.24
26702 H 10.393033186346386 36.521731817972494 47.49796800889082 H 0.0 **** 0.06
26703 H 10.971591984321577 37.347627495054454 46.0314040297455 H 0.0 **** 0.06
26704 H 11.519549198233136 37.89185464433672 47.6353901989419 H 0.0 **** 0.06
26705 H 9.837263300179785 38.1714167017183 47.12814176518002 H 0.0 **** 0.06
26706 C 66.5353190949736 82.34776490452185 22.156502727887997 C 0.0 **** -0.24
26707 H 65.45648344006605 82.46218590963316 22.0580898003576 H 0.0 **** 0.06
26708 H 66.75880691700849 81.37879965569387 22.602192326775633 H 0.0 **** 0.06
26709 H 66.92872743780816 83.1407024174219 22.793146833692695 H 0.0 **** 0.06
26710 H 66.99878324157706 82.41050673154793 21.171404152274416 H 0.0 **** 0.06
26711 C 106.08590687249817 31.9247775908772 77.92345445175175 C 0.0 **** -0.24
26712 H 106.08841791848836 32.8705417993601 78.46521312327383 H 0.0 **** 0.06
26713 H 105.55284848530889 32.047975411100566 76.980156615451 H 0.0 **** 0.06
26714 H 105.59090828412401 31.16282613218641 78.5239600652157 H 0.0 **** 0.06
26715 H 107.11324050292137 31.61829066875191 77.72289734444644 H 0.0 **** 0.06
26716 C 37.31999359218942 23.855484083116494 31.4284295963474 C 0.0 **** -0.24
26717 H 37.966504921122265 24.629172769636398 31.015623863006965 H 0.0 **** 0.06
26718 H 37.90534474839302 23.196583279207232 32.070107460857116 H 0.0 **** 0.06
26719 H 36.88224086543157 23.277125481125893 30.61409389242067 H 0.0 **** 0.06
26720 H 36.52430973546913 24.319639651431885 32.01210978961001 H 0.0 **** 0.06
26721 C 64.62848141895174 92.17797203324426 27.52898516863081 C 0.0 **** -0.24
26722 H 64.34939571199284 92.56857234629766 28.507397788434105 H 0.0 **** 0.06
26723 H 64.77744569199298 93.00653877250046 26.835870778281105 H 0.0 **** 0.06
26724 H 63.835618233861524 91.53013628200664 27.15621381965292 H 0.0 **** 0.06
26725 H 65.55358295001604 91.60690908942351 27.61578978387604 H 0.0 **** 0.06
26726 C 72.33141308917328 31.527134535356026 104.04888400944861 C 0.0 **** -0.24
26727 H 72.3997456398364 32.58980405330789 103.81357799430202 H 0.0 **** 0.06
26728 H 72.38901286335062 31.390522426883024 105.12962828630504 H 0.0 **** 0.06
26729 H 73.15447699887329 30.995540336652198 103.57032141240052 H 0.0 **** 0.06
26730 H 71.38280879733884 31.13400600295597 103.68226350483047 H 0.0 **** 0.06
26731 C 32.104183807271376 48.43956189811601 86.5589570060495 C 0.0 **** -0.24
26732 H 32.67869118800227 49.33630033149498 86.79133205460721 H 0.0 **** 0.06
26733 H 32.59339759926236 47.8933730838061 85.75286500047122 H 0.0 **** 0.06
26734 H 31.098526476513882 48.72398525657266 86.24715505575733 H 0.0 **** 0.06
26735 H 32.044886176171744 47.80711849368353 87.4441941462241 H 0.0 **** 0.06
26736 C 18.22099134887523 106.3893664257744 62.82194680863785 C 0.0 **** -0.24
26737 H 17.22903701114359 106.36402802220121 63.273958205086785 H 0.0 **** 0.06
26738 H 18.31442898197838 105.57188957447883 62.1066841041158 H 0.0 **** 0.06
26739 H 18.976391744729398 106.28102418215641 63.599553945029015 H 0.0 **** 0.06
26740 H 18.360792236470218 107.34054175713518 62.307681373461264 H 0.0 **** 0.06
26741 C 104.94438572520684 20.828904844593595 70.55777739126532 C 0.0 **** -0.24
26742 H 104.15573360507948 20.668767360499416 69.82314585783564 H 0.0 **** 0.06
26743 H 105.625282118462 21.60102762827563 70.19703468526254 H 0.0 **** 0.06
26744 H 105.49504566400599 19.89962941528691 70.7077926236611 H 0.0 **** 0.06
26745 H 104.50206599268147 21.14675555961844 71.50197699326486 H 0.0 **** 0.06
26746 C 57.30964554133897 33.840773224017255 27.580074140632888 C 0.0 **** -0.24
26747 H 56.69016510956433 33.618206518225236 28.448871449161516 H 0.0 **** 0.06
26748 H 58.226896098622355 33.25372238215752 27.627649742230773 H 0.0 **** 0.06
26749 H 57.55705036036788 34.90174823110726 27.57229317132746 H 0.0 **** 0.06
26750 H 56.76354860893887 33.588475158328606 26.670967136361043 H 0.0 **** 0.06
26751 C 25.77242674936997 92.00735211306852 66.15460675134995 C 0.0 **** -0.24
26752 H 25.214448594794078 91.31317550542497 65.52649935051969 H 0.0 **** 0.06
26753 H 25.96681997508827 91.54602324151728 67.12257143498002 H 0.0 **** 0.06
26754 H 25.189392052987387 92.91784413692733 66.29565836474879 H 0.0 **** 0.06
26755 H 26.718132336604896 92.25358136732689 65.67177779166454 H 0.0 **** 0.06
26756 C 0.9839449649490462 57.159263428492494 58.6820848754453 C 0.0 **** -0.24
26757 H 1.4565986943201779 57.220239979354574 59.661649550956724 H 0.0 **** 0.06
26758 H 0.015274356577833714 57.659531961988364 58.713348618925465 H 0.0 **** 0.06
26759 H 0.8435111815210234 56.11255818287151 58.411400168287855 H 0.0 **** 0.06
26760 H 1.6194018457269976 57.64412735650873 57.94113061068691 H 0.0 **** 0.06
26761 C 11.399939645938389 4.130121688364397 70.36713423064718 C 0.0 **** -0.24
26762 H 10.431633984773157 3.714960060308698 70.64694074232308 H 0.0 **** 0.06
26763 H 12.194002211767838 3.5458773562714327 70.83436865266289 H 0.0 **** 0.06
26764 H 11.463181522735056 5.164095181328435 70.70560870239194 H 0.0 **** 0.06
26765 H 11.511523034954848 4.094534769280301 69.28352202236599 H 0.0 **** 0.06
26766 C 73.7464673799916 3.2919442706920563 93.91685461289445 C 0.0 **** -0.24
26767 H 73.12588054546448 3.427388398045423 94.80203624769251 H 0.0 **** 0.06
26768 H 73.13808098089937 2.8980722538535417 93.10297285782978 H 0.0 **** 0.06
26769 H 74.55196805703784 2.592087519105661 94.14077853896241 H 0.0 **** 0.06
26770 H 74.17215993789345 4.251134576557064 93.621129168109 H 0.0 **** 0.06
26771 C 82.99621632896611 50.912554911561244 43.231956046199684 C 0.0 **** -0.24
26772 H 83.12771055911887 51.88367974047026 43.70990434246329 H 0.0 **** 0.06
26773 H 83.93375430127615 50.60432813154671 42.76998258645199 H 0.0 **** 0.06
26774 H 82.22186194220056 50.98691869754731 42.467989390903426 H 0.0 **** 0.06
26775 H 82.69966604987505 50.17756204967651 43.979359599041004 H 0.0 **** 0.06
26776 C 45.11242820603849 50.413245683960035 53.24583418172011 C 0.0 **** -0.24
26777 H 44.30343531338289 49.766994629898726 52.90355675696668 H 0.0 **** 0.06
26778 H 44.85181228559071 50.838563558295064 54.21535921333185 H 0.0 **** 0.06
26779 H 45.263125214497705 51.21715517363855 52.525459527185376 H 0.0 **** 0.06
26780 H 46.02925885640971 49.83054372797568 53.33819067308167 H 0.0 **** 0.06
26781 C 78.68988320668245 2.6445407807549657 22.83196209070681 C 0.0 **** -0.24
26782 H 78.34784368890735 2.4693060612104887 23.851379774355422 H 0.0 **** 0.06
26783 H 79.56083004815673 3.3004320797581244 22.850043987143152 H 0.0 **** 0.06
26784 H 77.89276322142362 3.114373940868461 22.25671241463155 H 0.0 **** 0.06
26785 H 78.9600050276888 1.6947827627123075 22.371061249371195 H 0.0 **** 0.06
26786 C 99.43752476351688 15.237975478969958 14.796529096391751 C 0.0 **** -0.24
26787 H 99.9558039819544 16.19381593355405 14.878671809582357 H 0.0 **** 0.06
26788 H 98.37910306456489 15.379724267963894 15.013596979882394 H 0.0 **** 0.06
26789 H 99.86344594505934 14.531514936682356 15.508914070465721 H 0.0 **** 0.06
26790 H 99.55299302607277 14.849382671761447 13.785054733759324 H 0.0 **** 0.06
26791 C 5.27257282308595 88.52314648346797 23.883727001621963 C 0.0 **** -0.24
26792 H 4.3225627019346184 87.99545171403318 23.797137599193974 H 0.0 **** 0.06
26793 H 5.7780891958440055 88.52263108806338 22.918187968146583 H 0.0 **** 0.06
26794 H 5.898201800407012 88.02324812313529 24.6231022202779 H 0.0 **** 0.06
26795 H 5.089313462024952 89.5509338688106 24.198320137420666 H 0.0 **** 0.06
26796 C 17.915422308210623 17.066656595706462 25.166046540257113 C 0.0 **** -0.24
26797 H 17.819596277358585 17.670721001103786 26.067857628061375 H 0.0 **** 0.06
26798 H 17.412179118073198 16.11114140412724 25.314676042973787 H 0.0 **** 0.06
26799 H 18.97100021326486 16.892988577636544 24.95676582497262 H 0.0 **** 0.06
26800 H 17.45881013529862 17.590887576475595 24.326936369819606 H 0.0 **** 0.06
26801 C 59.24738958784039 71.40621732813395 89.49971473891395 C 0.0 **** -0.24
26802 H 58.295570629122494 71.64797272403216 89.97237496815218 H 0.0 **** 0.06
26803 H 59.06376120296264 70.87443235064717 88.56551662627001 H 0.0 **** 0.06
26804 H 59.834948812770676 70.77629669283122 90.16674457695275 H 0.0 **** 0.06
26805 H 59.794341813605655 72.32578875281902 89.29281538984813 H 0.0 **** 0.06
26806 C 22.59002856643997 19.59148553326301 65.23743539970866 C 0.0 **** -0.24
26807 H 23.53511140481936 19.68261419128993 65.7724780967273 H 0.0 **** 0.06
26808 H 21.763221094077778 19.702651831900695 65.93864089346954 H 0.0 **** 0.06
26809 H 22.534670256730152 18.61107027548131 64.76323382320163 H 0.0 **** 0.06
26810 H 22.527285556303127 20.366820225951628 64.47428855452961 H 0.0 **** 0.06
26811 C 34.017833511511554 30.20614553038402 90.81981025469686 C 0.0 **** -0.24
26812 H 34.879171133890736 29.997312445686227 91.45510467210966 H 0.0 **** 0.06
26813 H 34.31677451161363 30.149982826473334 89.77326559661148 H 0.0 **** 0.06
26814 H 33.6407143340858 31.205522254748146 91.03688857183666 H 0.0 **** 0.06
26815 H 33.236990527686814 29.472194961395125 91.01465230366588 H 0.0 **** 0.06
26816 C 4.224094786358222 53.47455428015229 31.00540834709784 C 0.0 **** -0.24
26817 H 4.725821000098364 53.46366053384972 31.97298099932914 H 0.0 **** 0.06
26818 H 4.884310783697586 53.917110969920174 30.259060471429507 H 0.0 **** 0.06
26819 H 3.309813900137897 54.064550247835996 31.076990284300564 H 0.0 **** 0.06
26820 H 3.9759065884553166 52.45504793679902 30.71290010765324 H 0.0 **** 0.06
26821 C 88.513583667196 98.30326098538387 17.528860112338744 C 0.0 **** -0.24
26822 H 88.2756661637732 98.10281146412179 18.57349543422662 H 0.0 **** 0.06
26823 H 88.29853381596163 99.34766662773495 17.3011560089061 H 0.0 **** 0.06
26824 H 87.90840394397114 97.65995679233899 16.888904648875116 H 0.0 **** 0.06
26825 H 89.5692971985649 98.10241881352559 17.352089137588813 H 0.0 **** 0.06
26826 C 101.34259576062239 73.2237209944752 81.87759781389053 C 0.0 **** -0.24
26827 H 101.23213503942324 72.44603741517116 81.12265786083083 H 0.0 **** 0.06
26828 H 102.39512674337846 73.49386592463385 81.96982584500282 H 0.0 **** 0.06
26829 H 100.97626780390081 72.85398600339502 82.83553079260723 H 0.0 **** 0.06
26830 H 100.76685345578699 74.10099463470061 81.5823767571211 H 0.0 **** 0.06
26831 C 68.21270687138093 105.39110651493729 79.36012659411085 C 0.0 **** -0.24
26832 H 68.51667907997643 104.36179712432194 79.55468727111617 H 0.0 **** 0.06
26833 H 68.9320193921213 105.86158155187556 78.69048011866005 H 0.0 **** 0.06
26834 H 68.17483074014993 105.94238369121973 80.29984282516972 H 0.0 **** 0.06
26835 H 67.22613473785131 105.39573193003856 78.89572291169287 H 0.0 **** 0.06
26836 C 82.72277724151604 93.7183104333239 54.21292962967186 C 0.0 **** -0.24
26837 H 82.06848259718251 94.17032984407325 53.46758026741975 H 0.0 **** 0.06
26838 H 82.54507022414094 92.64329411955805 54.24831135240106 H 0.0 **** 0.06
26839 H 82.51388933079491 94.1533962373112 55.19070155155191 H 0.0 **** 0.06
26840 H 83.76262869409226 93.90635560123621 53.94607635982834 H 0.0 **** 0.06
26841 C 60.55883427488064 105.38412579871442 61.667242062216246 C 0.0 **** -0.24
26842 H 61.282449233595344 104.60728289341193 61.42087001536484 H 0.0 **** 0.06
26843 H 59.62397750686406 105.18774067870379 61.1416800349125 H 0.0 **** 0.06
26844 H 60.94973827166719 106.35516598145807 61.363354361427014 H 0.0 **** 0.06
26845 H 60.37888721132959 105.38479633895338 62.742278485387715 H 0.0 **** 0.06
26846 C 64.3027698177793 66.8832847919735 30.382983161523782 C 0.0 **** -0.24
26847 H 64.90244797565208 66.21707260489774 29.76240668964128 H 0.0 **** 0.06
26848 H 64.07917067512852 67.79395430607121 29.82764079037966 H 0.0 **** 0.06
26849 H 64.85647069817516 67.13436727464102 31.28717207262258 H 0.0 **** 0.06
26850 H 63.37114283468878 66.38470686841333 30.654114152219506 H 0.0 **** 0.06
26851 C 37.75446869852445 93.74219237151289 1.5835926543837218 C 0.0 **** -0.24
26852 H 38.42525164478491 93.018351936785 1.120912456924117 H 0.0 **** 0.06
26853 H 37.029817090501524 94.08823667685783 0.8471518543341006 H 0.0 **** 0.06
26854 H 38.33374585879801 94.58918358967168 1.9514167455483005 H 0.0 **** 0.06
26855 H 37.23137529641855 93.27157004129299 2.4161559433441937 H 0.0 **** 0.06
26856 C 17.51583263221312 6.787412866792181 85.89272335872393 C 0.0 **** -0.24
26857 H 16.770881787204587 6.00022869931604 86.01254435899813 H 0.0 **** 0.06
26858 H 17.921920614425858 6.750272342531844 84.88139804816193 H 0.0 **** 0.06
26859 H 18.319869471533053 6.639933501215523 86.61304985320703 H 0.0 **** 0.06
26860 H 17.04935394074039 7.757431486671976 86.06213757013425 H 0.0 **** 0.06
26861 C 29.696372178525394 18.362890567401735 86.90285280187553 C 0.0 **** -0.24
26862 H 28.924027686509618 17.720364005720256 86.4797815056914 H 0.0 **** 0.06
26863 H 30.165876960907553 18.93925737208164 86.105769200731 H 0.0 **** 0.06
26864 H 30.447491875722136 17.749302636151384 87.40003762402905 H 0.0 **** 0.06
26865 H 29.24618517366244 19.04303151574902 87.62692235954607 H 0.0 **** 0.06
26866 C 16.402477403886902 52.841550554911834 47.6672700992575 C 0.0 **** -0.24
26867 H 16.673737744748344 53.863855762291124 47.93321305964613 H 0.0 **** 0.06
26868 H 16.491023850272125 52.71196338811521 46.58879182687036 H 0.0 **** 0.06
26869 H 15.374739819622711 52.64814924588783 47.97423603943612 H 0.0 **** 0.06
26870 H 17.070298080438036 52.1453093547861 48.174076195144124 H 0.0 **** 0.06
26871 C 21.86280278534113 31.028824403861847 80.90435239845263 C 0.0 **** -0.24
26872 H 21.491343802987558 32.027155948388156 80.67107551735486 H 0.0 **** 0.06
26873 H 21.49198493119738 30.32243200770418 80.16120528016836 H 0.0 **** 0.06
26874 H 21.513809075783882 30.73353637425953 81.89315471132815 H 0.0 **** 0.06
26875 H 22.952416555761346 31.034688222478223 80.88975353792426 H 0.0 **** 0.06
26876 C 20.68046020596259 2.5885153803141696 101.04947345441343 C 0.0 **** -0.24
26877 H 21.166482808187283 2.5611843198739512 100.07412184678329 H 0.0 **** 0.06
26878 H 19.83478309911517 1.900059317776094 101.05251260656182 H 0.0 **** 0.06
26879 H 20.32652171890625 3.599292844852595 101.2508341844806 H 0.0 **** 0.06
26880 H 21.39272769335716 2.29270735060413 101.81917034570633 H 0.0 **** 0.06
26881 C 65.68550358136099 5.529726544191632 13.990109603813892 C 0.0 **** -0.24
26882 H 65.04022861569783 6.111292573273509 14.650076250149212 H 0.0 **** 0.06
26883 H 65.12299601716597 5.227583218844304 13.105816422189548 H 0.0 **** 0.06
26884 H 66.03747254946171 4.6429460700603755 14.517630185018731 H 0.0 **** 0.06
26885 H 66.53911961472949 6.136895181370619 13.68894915373744 H 0.0 **** 0.06
26886 C 91.0113619345803 85.17222533106425 7.78530042211446 C 0.0 **** -0.24
26887 H 90.83422793778337 84.85900838304732 6.7563332676675145 H 0.0 **** 0.06
26888 H 90.70520860576428 84.37635044880423 8.46512766045683 H 0.0 **** 0.06
26889 H 90.43325799579233 86.07208313950659 7.995413409572052 H 0.0 **** 0.06
26890 H 92.07190992452709 85.38042566437375 7.924796891307949 H 0.0 **** 0.06
26891 C 78.74671753528145 75.82039157790466 81.400455365753 C 0.0 **** -0.24
26892 H 77.82501890201905 75.24212455698174 81.4610735634099 H 0.0 **** 0.06
26893 H 79.21804883075356 75.85686638413847 82.38274051676552 H 0.0 **** 0.06
26894 H 78.51864950462266 76.83265646340955 81.06762139320908 H 0.0 **** 0.06
26895 H 79.42441012516349 75.34843885809745 80.68858099343002 H 0.0 **** 0.06
26896 C 5.272157853146837 59.48673464615669 26.374916290329196 C 0.0 **** -0.24
26897 H 5.471122423888119 58.83182124661238 27.22298835599311 H 0.0 **** 0.06
26898 H 4.474941226354588 59.06095527772598 25.766102477445244 H 0.0 **** 0.06
26899 H 6.1759129559335975 59.58674952633686 25.773069560398056 H 0.0 **** 0.06
26900 H 4.967460568499632 60.46850171497189 26.737910383378704 H 0.0 **** 0.06
26901 C 54.61220369949788 72.17498736518029 58.24286318019139 C 0.0 **** -0.24
26902 H 55.53948152938821 72.18077674684908 58.81626272885765 H 0.0 **** 0.06
26903 H 53.77490714838988 72.40164507563901 58.90372362270534 H 0.0 **** 0.06
26904 H 54.46780243429193 71.19122979017757 57.79685870701772 H 0.0 **** 0.06
26905 H 54.66734845858803 72.92756405642058 57.45630225688549 H 0.0 **** 0.06
26906 C 86.95671056257763 81.93154024894378 20.381847537888504 C 0.0 **** -0.24
26907 H 88.01874572953776 81.7151746216694 20.267187534035827 H 0.0 **** 0.06
26908 H 86.58362111708354 82.40954525471028 19.475430833819587 H 0.0 **** 0.06
26909 H 86.81181874020959 82.59970629493569 21.231331643848307 H 0.0 **** 0.06
26910 H 86.41325711181216 81.00242659187373 20.553841345150403 H 0.0 **** 0.06
26911 C 80.38111592239898 64.17929831270695 59.33793380614512 C 0.0 **** -0.24
26912 H 80.45038529818066 63.09823885998077 59.457013193524176 H 0.0 **** 0.06
26913 H 81.08776248346783 64.50653226005986 58.57483923908816 H 0.0 **** 0.06
26914 H 80.61721427215946 64.66488244083534 60.28502215989937 H 0.0 **** 0.06
26915 H 79.36840145031738 64.44683019789667 59.03494067816982 H 0.0 **** 0.06
26916 C 96.9532972443555 70.2660118396486 1.0859499506464658 C 0.0 **** -0.24
26917 H 96.82528389706896 69.2157343675679 0.8217160079123005 H 0.0 **** 0.06
26918 H 95.9872969431395 70.69154815913998 1.3589426181556234 H 0.0 **** 0.06
26919 H 97.36090443914745 70.80724793962466 0.23238416789472183 H 0.0 **** 0.06
26920 H 97.63836383046953 70.34781781546309 1.9286789548969523 H 0.0 **** 0.06
26921 C 38.65656079830825 66.18513539878903 97.01542606877894 C 0.0 **** -0.24
26922 H 39.02078363822284 65.21691692948144 97.35602603100006 H 0.0 **** 0.06
26923 H 38.645615013664326 66.20665463751786 95.92573950159624 H 0.0 **** 0.06
26924 H 39.312438854219806 66.97197300996756 97.38813810418696 H 0.0 **** 0.06
26925 H 37.646394623650565 66.34595916128244 97.39202894385602 H 0.0 **** 0.06
26926 C 27.943110515164463 7.969182005339164 76.94723849084258 C 0.0 **** -0.24
26927 H 28.398212603746146 8.668453423421312 77.64773418660164 H 0.0 **** 0.06
26928 H 27.176723885848673 7.387283014925018 77.4603426309362 H 0.0 **** 0.06
26929 H 28.708184035308477 7.297864802026993 76.55660253304887 H 0.0 **** 0.06
26930 H 27.490052332632303 8.521918919102873 76.12435886061687 H 0.0 **** 0.06
26931 C 34.32263102674449 2.21256335707524 19.055843187455878 C 0.0 **** -0.24
26932 H 35.33189405826778 1.8114292738960671 18.966080925809024 H 0.0 **** 0.06
26933 H 34.26981907957989 2.871069602479153 19.923744220136996 H 0.0 **** 0.06
26934 H 33.61433300915627 1.3930408771421554 19.177705949578694 H 0.0 **** 0.06
26935 H 34.07387434176229 2.7763369021681683 18.155871920736672 H 0.0 **** 0.06
26936 C 73.69503757641047 70.21756343058763 3.581951735950483 C 0.0 **** -0.24
26937 H 72.9082560581368 70.69236062585168 2.9953188048499015 H 0.0 **** 0.06
26938 H 73.44959917970561 69.16654717190988 3.7351788101043013 H 0.0 **** 0.06
26939 H 73.77807840562326 70.71622197490166 4.548624209981668 H 0.0 **** 0.06
26940 H 74.6427496553174 70.2965563474421 3.050025418771156 H 0.0 **** 0.06
26941 C 2.8053451103442484 63.44759151735974 53.370815877165285 C 0.0 **** -0.24
26942 H 2.537671758508239 64.31014923606153 53.98086329544435 H 0.0 **** 0.06
26943 H 2.185399863693661 63.431368175320586 52.473668473162945 H 0.0 **** 0.06
26944 H 2.641159891544973 62.53379475186506 53.94181446630654 H 0.0 **** 0.06
26945 H 3.8557725128598577 63.515207138867765 53.08587701403354 H 0.0 **** 0.06
26946 C 3.0115965199546793 93.9536058746176 98.97266483204795 C 0.0 **** -0.24
26947 H 3.2210146416201724 93.24424810525933 99.77308428135342 H 0.0 **** 0.06
26948 H 2.006634541823985 93.78031036072781 98.58742619454493 H 0.0 **** 0.06
26949 H 3.736964524227602 93.81983605776617 98.17006804230101 H 0.0 **** 0.06
26950 H 3.0822132527393364 94.97037093538127 99.36091070953763 H 0.0 **** 0.06
26951 C 34.723569320816274 40.47724214667778 103.89736058146812 C 0.0 **** -0.24
26952 H 34.01959768209223 40.063685446648094 103.17585974847998 H 0.0 **** 0.06
26953 H 34.972902180601544 41.50015200684561 103.61584284726482 H 0.0 **** 0.06
26954 H 35.62938253770925 39.87146046252198 103.9098366590149 H 0.0 **** 0.06
26955 H 34.27091077604892 40.47323631806074 104.88951830948409 H 0.0 **** 0.06
26956 C 8.129926714046345 12.780535953474384 55.928565269919886 C 0.0 **** -0.24
26957 H 9.145083349917037 12.529386097990056 56.2347701503009 H 0.0 **** 0.06
26958 H 7.435282572625116 12.528717497922557 56.730597526116185 H 0.0 **** 0.06
26959 H 7.869696728581957 12.215281734061094 55.032976756703874 H 0.0 **** 0.06
26960 H 8.067576525859566 13.847868212204816 55.71495104038968 H 0.0 **** 0.06
26961 C 62.392821447578314 102.98220032836433 107.04154623823871 C 0.0 **** -0.24
26962 H 63.320148775810566 103.52472035932233 107.22235469154026 H 0.0 **** 0.06
26963 H 62.56010744602281 101.9155592876384 107.19484673781949 H 0.0 **** 0.06
26964 H 62.06433375516056 103.1549095579642 106.01625208301796 H 0.0 **** 0.06
26965 H 61.62560640255995 103.33167117627711 107.73251650706067 H 0.0 **** 0.06
26966 C 36.68013737786253 85.58064445356794 17.48690312560042 C 0.0 **** -0.24
26967 H 36.08919953446604 85.9244830208487 18.33599159278701 H 0.0 **** 0.06
26968 H 36.43552231936397 84.54043731934695 17.27168857654449 H 0.0 **** 0.06
26969 H 37.741042218313275 85.66272635185481 17.726876601071268 H 0.0 **** 0.06
26970 H 36.45610049847533 86.19612228206063 16.615673406176427 H 0.0 **** 0.06
26971 C 80.35218346887656 6.139664034096825 58.723312116707426 C 0.0 **** -0.24
26972 H 80.25681899158766 5.3647939115151075 59.48455758223325 H 0.0 **** 0.06
26973 H 79.59872779895322 6.910127937035725 58.894091928976735 H 0.0 **** 0.06
26974 H 80.20562736429855 5.700198525929466 57.737660052710595 H 0.0 **** 0.06
26975 H 81.34577650525739 6.583934069714246 58.780204195907466 H 0.0 **** 0.06
26976 C 39.75450643493167 68.66662683961513 49.228156798692986 C 0.0 **** -0.24
26977 H 39.746553083062906 67.98639275854808 50.08006645715508 H 0.0 **** 0.06
26978 H 40.48325410905761 69.45861813859486 49.40201115616298 H 0.0 **** 0.06
26979 H 38.76365342123216 69.10437873211035 49.1045755698533 H 0.0 **** 0.06
26980 H 40.02324290939248 68.115407184947 48.327125557029994 H 0.0 **** 0.06
26981 C 51.73617849321795 93.37867130884618 3.929233639537017 C 0.0 **** -0.24
26982 H 50.74202591200327 93.58207867776257 3.5329588202289983 H 0.0 **** 0.06
26983 H 51.65808225478065 92.68082512161784 4.764062647438209 H 0.0 **** 0.06
26984 H 52.18788914930667 94.30842591126833 4.27329251913369 H 0.0 **** 0.06
26985 H 52.35668618306079 92.9411568829981 3.1470271129814478 H 0.0 **** 0.06
26986 C 84.44941914738553 87.72355249928867 90.0887052414733 C 0.0 **** -0.24
26987 H 83.44760524446082 87.591157616462 89.67856347963324 H 0.0 **** 0.06
26988 H 84.40669638241064 88.40545847236561 90.93799360058776 H 0.0 **** 0.06
26989 H 85.1035563044772 88.13821928526693 89.32131630979082 H 0.0 **** 0.06
26990 H 84.83829269097953 86.75936715765255 90.4153130733363 H 0.0 **** 0.06
26991 C 49.45363750844968 64.12681222610661 64.8261162791411 C 0.0 **** -0.24
26992 H 49.229527711537635 63.60979218031224 65.75898002220286 H 0.0 **** 0.06
26993 H 50.210153419022 64.89048980959456 65.00684794913126 H 0.0 **** 0.06
26994 H 48.54792183023173 64.5951904698623 64.44318997195661 H 0.0 **** 0.06
26995 H 49.82876981759398 63.409265453295404 64.09483644826814 H 0.0 **** 0.06
26996 C 33.31042158090665 40.700561942369944 73.03159082025451 C 0.0 **** -0.24
26997 H 32.67425101697759 41.58349863352396 73.09173657074768 H 0.0 **** 0.06
26998 H 32.78100848558708 39.84274351859642 73.4481974774107 H 0.0 **** 0.06
26999 H 34.22467377309738 40.873168087799314 73.59786255055013 H 0.0 **** 0.06
27000 H 33.55947499253165 40.50306685134717 71.98943740112281 H 0.0 **** 0.06
27001 C 5.695278446070191 55.13142572151165 17.937318166854766 C 0.0 **** -0.24
27002 H 4.723298061999714 55.57758717271826 17.72425749409284 H 0.0 **** 0.06
27003 H 6.40305529433283 55.91535251363348 18.205898514094827 H 0.0 **** 0.06
27004 H 6.054669462014601 54.60318770429738 17.054751819838046 H 0.0 **** 0.06
27005 H 5.597515575086035 54.429633722601324 18.766453972731455 H 0.0 **** 0.06
27006 C 72.52962621513237 73.64384052078609 102.26788826746646 C 0.0 **** -0.24
27007 H 71.4560437887308 73.68093070793935 102.45648006039318 H 0.0 **** 0.06
27008 H 72.95635548901967 74.63739036759696 102.40328587282535 H 0.0 **** 0.06
27009 H 72.70606115859883 73.30824177918413 101.24587510209648 H 0.0 **** 0.06
27010 H 72.99654217731097 72.94828554548482 102.96469916960494 H 0.0 **** 0.06
27011 C 47.9185019167667 83.69660610717256 69.59495292903546 C 0.0 **** -0.24
27012 H 47.58154756178931 83.72707125165442 70.63118907575745 H 0.0 **** 0.06
27013 H 47.420352917706765 84.48440550035622 69.02857808385619 H 0.0 **** 0.06
27014 H 47.672926849887034 82.72692890201182 69.16193247812504 H 0.0 **** 0.06
27015 H 48.996592400465914 83.84880454717063 69.55975085935592 H 0.0 **** 0.06
27016 C 101.16575042866681 43.12053323259815 42.57076889954632 C 0.0 **** -0.24
27017 H 100.97417534704294 43.390129395225216 41.53164587836511 H 0.0 **** 0.06
27018 H 100.60577963264079 42.22009417126477 42.821437744434604 H 0.0 **** 0.06
27019 H 100.85060315754099 43.937040040061454 43.22071855411994 H 0.0 **** 0.06
27020 H 102.23126901397116 42.93737057526265 42.70695723029695 H 0.0 **** 0.06
27021 C 96.82018400901528 21.183556099526683 67.98260616334287 C 0.0 **** -0.24
27022 H 96.16045473531724 20.318082127499196 68.05939738888131 H 0.0 **** 0.06
27023 H 96.51334959715766 21.938498101402033 68.70730884647284 H 0.0 **** 0.06
27024 H 96.75903423521613 21.59757552886282 66.97688639299426 H 0.0 **** 0.06
27025 H 97.84504356638087 20.876561858748886 68.18757948291423 H 0.0 **** 0.06
27026 C 90.99913652316158 13.616760502003842 43.2590560839495 C 0.0 **** -0.24
27027 H 92.02761758836961 13.448798221949176 42.93830834302602 H 0.0 **** 0.06
27028 H 90.97737618698633 14.411131351731399 44.00558282847496 H 0.0 **** 0.06
27029 H 90.60032588175007 12.699303564725852 43.691586472043525 H 0.0 **** 0.06
27030 H 90.39366290809302 13.907858063622882 42.40049878553921 H 0.0 **** 0.06
27031 C 69.96244396700538 79.11011793359364 2.925559430539664 C 0.0 **** -0.24
27032 H 69.15360842746767 78.91261632297059 3.6299137077926105 H 0.0 **** 0.06
27033 H 70.81562104369716 79.52701025170063 3.4616726885266758 H 0.0 **** 0.06
27034 H 69.62317805460617 79.82011236209934 2.172717374724982 H 0.0 **** 0.06
27035 H 70.257622093391 78.17898510704305 2.441791672841987 H 0.0 **** 0.06
27036 C 65.87260158244412 20.88903365310216 69.98403940100332 C 0.0 **** -0.24
27037 H 66.56758341710756 20.476080170657383 69.25356603877094 H 0.0 **** 0.06
27038 H 65.34303540490092 20.07624108344953 70.48167545047562 H 0.0 **** 0.06
27039 H 65.15619862174206 21.53529095335304 69.47887515684931 H 0.0 **** 0.06
27040 H 66.42618176935034 21.468756494825385 70.72383612322335 H 0.0 **** 0.06
27041 C 42.17677458763893 70.62918719963214 79.87523016016405 C 0.0 **** -0.24
27042 H 41.24492348144324 70.11705433249844 79.63405557342486 H 0.0 **** 0.06
27043 H 42.97727196369168 69.89718127479 79.98025855540945 H 0.0 **** 0.06
27044 H 42.05860206627139 71.17665822416893 80.8104966751423 H 0.0 **** 0.06
27045 H 42.42472865980149 71.3275322251305 79.07526406260334 H 0.0 **** 0.06
27046 C 29.21714828389824 2.3581814285790728 94.12553971973067 C 0.0 **** -0.24
27047 H 28.535605878746082 2.390294838695307 94.97593222533766 H 0.0 **** 0.06
27048 H 29.869577288886234 1.4894544169715092 94.21615153530485 H 0.0 **** 0.06
27049 H 29.819908476077956 3.2659764589752136 94.10862753064046 H 0.0 **** 0.06
27050 H 28.641629900802457 2.2862010412591243 93.20237443310674 H 0.0 **** 0.06
27051 C 7.710086066398455 0.5461807796776412 91.5772343620535 C 0.0 **** -0.24
27052 H 7.908328289315024 -0.29573255956006506 90.91409964977339 H 0.0 **** 0.06
27053 H 6.656510946187748 0.5461384413633255 91.85853885883242 H 0.0 **** 0.06
27054 H 7.948864345565163 1.477250588125898 91.06373399320934 H 0.0 **** 0.06
27055 H 8.325359103863825 0.4565785514133154 92.4722193974707 H 0.0 **** 0.06
27056 C 101.55456312003133 79.4619494181164 89.77254866059768 C 0.0 **** -0.24
27057 H 101.47659924023219 79.62837648370976 88.69868259811147 H 0.0 **** 0.06
27058 H 102.01817269217429 78.49276793347997 89.95738679508834 H 0.0 **** 0.06
27059 H 100.55926646602745 79.47889900973942 90.21642925413853 H 0.0 **** 0.06
27060 H 102.1645498128201 80.24842237788744 90.21889640159499 H 0.0 **** 0.06
27061 C 60.413780594850074 35.3794889232607 20.344937909904786 C 0.0 **** -0.24
27062 H 60.05795656923754 36.40344738076358 20.456562380663343 H 0.0 **** 0.06
27063 H 59.6794302162856 34.7986325244537 19.787552013244664 H 0.0 **** 0.06
27064 H 60.55805438475964 34.93483297385632 21.329605807002807 H 0.0 **** 0.06
27065 H 61.36144988938584 35.38160491864709 19.804784025914017 H 0.0 **** 0.06
27066 C 80.33918893698007 49.30985904461588 10.427072200590727 C 0.0 **** -0.24
27067 H 80.68994750633777 49.57984645810043 11.423576073454402 H 0.0 **** 0.06
27068 H 79.27386056127284 49.52498596165441 10.347150080835226 H 0.0 **** 0.06
27069 H 80.50968585883976 48.24722951551547 10.258368535112933 H 0.0 **** 0.06
27070 H 80.88486906074306 49.88884742812123 9.6816935158117 H 0.0 **** 0.06
27071 C 71.77780435671224 97.00047747206285 30.26046116212376 C 0.0 **** -0.24
27072 H 72.0267733319613 98.02410882647924 29.978849632955544 H 0.0 **** 0.06
27073 H 71.2390316016527 96.52030265203085 29.442762054189885 H 0.0 **** 0.06
27074 H 71.15054945036957 97.01186881016268 31.152021728522442 H 0.0 **** 0.06
27075 H 72.69379762167637 96.44699445005172 30.4681643391215 H 0.0 **** 0.06
27076 C 4.143976455286634 59.65951298273296 95.77597689837822 C 0.0 **** -0.24
27077 H 3.462291933666677 60.05417445868312 96.52890731034532 H 0.0 **** 0.06
27078 H 3.8760744245194587 60.06017327181311 94.79839644872581 H 0.0 **** 0.06
27079 H 4.0722944448268095 58.572566480333904 95.75566318453221 H 0.0 **** 0.06
27080 H 5.164881462336496 59.95227999854336 96.02254165313735 H 0.0 **** 0.06
27081 C 44.243861258490256 50.91921878748458 72.39530795796344 C 0.0 **** -0.24
27082 H 43.985486761558235 50.171162981769896 73.14373281300504 H 0.0 **** 0.06
27083 H 45.32648182399017 51.04735610086299 72.3679894772336 H 0.0 **** 0.06
27084 H 43.77182315321666 51.8675900550613 72.65256403150408 H 0.0 **** 0.06
27085 H 43.89182824155338 50.59215195056823 71.41672491811113 H 0.0 **** 0.06
27086 C 93.45261209895375 20.828789282305195 34.418113790482245 C 0.0 **** -0.24
27087 H 93.16833025046691 20.653077000950546 33.38028443875784 H 0.0 **** 0.06
27088 H 92.86788540847607 21.656381952151833 34.81973398176199 H 0.0 **** 0.06
27089 H 94.51311705831188 21.075569614011187 34.468197772739664 H 0.0 **** 0.06
27090 H 93.26067957208005 19.928935619968442 35.00361704239709 H 0.0 **** 0.06
27091 C 64.45148923582224 40.42323625807657 93.92828921478437 C 0.0 **** -0.24
27092 H 65.36958833361442 40.20049584891632 93.3864309554711 H 0.0 **** 0.06
27093 H 64.3217890736531 41.50369656543185 93.99454721543063 H 0.0 **** 0.06
27094 H 64.50992601975412 40.00167456621358 94.93169520570152 H 0.0 **** 0.06
27095 H 63.60325435582092 39.98696508686601 93.40031120056429 H 0.0 **** 0.06
27096 C 106.60587662877882 84.41333159422021 59.84099646750151 C 0.0 **** -0.24
27097 H 105.5673655488323 84.6802580046388 59.64224338271457 H 0.0 **** 0.06
27098 H 107.07222082730729 85.19329523848756 60.443052543046534 H 0.0 **** 0.06
27099 H 107.14148570625636 84.31298273558895 58.89695317780157 H 0.0 **** 0.06
27100 H 106.6404543694234 83.4672674300669 60.38081371706802 H 0.0 **** 0.06
27101 C 49.53105599980884 94.66443469392578 68.03906202138563 C 0.0 **** -0.24
27102 H 48.69484973951571 95.29907676165037 67.74585690925338 H 0.0 **** 0.06
27103 H 50.46250723036622 95.22240737992574 67.94374260954936 H 0.0 **** 0.06
27104 H 49.56451440786453 93.78670999091133 67.39310488724533 H 0.0 **** 0.06
27105 H 49.40041712601834 94.3481707594344 69.07414913546015 H 0.0 **** 0.06
27106 C 65.81113699630342 8.972405071174308 93.56476146825173 C 0.0 **** -0.24
27107 H 65.23103633126792 9.121396757374555 92.65357902602376 H 0.0 **** 0.06
27108 H 66.47873078680335 8.119998124931556 93.43488196917122 H 0.0 **** 0.06
27109 H 65.13480294929073 8.781431815086762 94.39845578774872 H 0.0 **** 0.06
27110 H 66.39878937326091 9.867363857299893 93.7716169904792 H 0.0 **** 0.06
27111 C 25.485350774583083 101.40921481623711 90.35756840357078 C 0.0 **** -0.24
27112 H 24.467043720037566 101.2470255773686 90.00599189191894 H 0.0 **** 0.06
27113 H 26.160383876426863 100.72500720975042 89.84379223162227 H 0.0 **** 0.06
27114 H 25.53192420832363 101.22825669518541 91.4317517270207 H 0.0 **** 0.06
27115 H 25.78220555215833 102.4375780516227 90.1497174014304 H 0.0 **** 0.06
27116 C 5.023987314048682 36.00429232416255 55.899015019965645 C 0.0 **** -0.24
27117 H 5.816001572920058 36.67575939193961 56.231955163839814 H 0.0 **** 0.06
27118 H 5.221623182234467 34.99821395205282 56.269525613353096 H 0.0 **** 0.06
27119 H 4.993725797488139 35.9916987025492 54.80950854985895 H 0.0 **** 0.06
27120 H 4.065832195736462 36.35218606125488 56.285006500712825 H 0.0 **** 0.06
27121 C 67.28320394964962 15.580701161611955 15.383048591632672 C 0.0 **** -0.24
27122 H 67.47592874556615 16.46229208360282 15.994820060341539 H 0.0 **** 0.06
27123 H 68.20871429155945 15.017218912750309 15.256040061702777 H 0.0 **** 0.06
27124 H 66.90891518403525 15.889963791344798 14.407823903154792 H 0.0 **** 0.06
27125 H 66.53984068018819 14.952398787049674 15.875181652452426 H 0.0 **** 0.06
27126 C 26.211157363148914 37.58445019676594 8.564269705860198 C 0.0 **** -0.24
27127 H 26.295541542167427 38.60463485297811 8.189836421270064 H 0.0 **** 0.06
27128 H 26.825339168948062 36.92284393101056 7.952964061843673 H 0.0 **** 0.06
27129 H 25.170062525832122 37.26330832335216 8.513444389443926 H 0.0 **** 0.06
27130 H 26.553039374740877 37.5459523009188 9.59810347724184 H 0.0 **** 0.06
27131 C 24.078708039518688 62.86266597338006 21.661507610838555 C 0.0 **** -0.24
27132 H 24.96047959581722 62.22125995054904 21.67115052005269 H 0.0 **** 0.06
27133 H 23.869461318824108 63.176095472540894 20.638700948437275 H 0.0 **** 0.06
27134 H 24.261092949207352 63.74003956442934 22.281201072246148 H 0.0 **** 0.06
27135 H 23.224575857977584 62.310563660641165 22.054699675126045 H 0.0 **** 0.06
27136 C 65.80076472453771 79.0305928125276 24.08514525509443 C 0.0 **** -0.24
27137 H 65.76183843632089 78.02591499978146 23.66499300586341 H 0.0 **** 0.06
27138 H 65.28810815787276 79.7235150141764 23.417326557439736 H 0.0 **** 0.06
27139 H 66.84026169619644 79.33713122747164 24.198921016900925 H 0.0 **** 0.06
27140 H 65.31210426762789 79.0352965145631 25.059763933083644 H 0.0 **** 0.06
27141 C 3.1355518128857565 97.28781186970289 24.724296038858853 C 0.0 **** -0.24
27142 H 2.2266874077957377 96.97979460656278 25.240427348813142 H 0.0 **** 0.06
27143 H 3.090228193550324 98.35703786350734 24.51650944625746 H 0.0 **** 0.06
27144 H 3.2244650244158564 96.73844360777416 23.78625940262475 H 0.0 **** 0.06
27145 H 4.000206367410887 97.07483273914877 25.353423315452204 H 0.0 **** 0.06
27146 C 19.57548577349327 65.22227845332439 97.00938101953548 C 0.0 **** -0.24
27147 H 19.74475031413158 65.3316502862651 98.08108577065674 H 0.0 **** 0.06
27148 H 18.733978434261672 64.5501376865238 96.841879113437 H 0.0 **** 0.06
27149 H 20.469365545623333 64.810075851866 96.54145830634418 H 0.0 **** 0.06
27150 H 19.35429475567645 66.1977871693338 96.57601858796858 H 0.0 **** 0.06
27151 C 6.173005317489695 50.38683499328649 71.23930944526877 C 0.0 **** -0.24
27152 H 6.367098057629407 49.9927084466644 70.24119570773108 H 0.0 **** 0.06
27153 H 5.369624889214375 51.1221949367314 71.18916589830107 H 0.0 **** 0.06
27154 H 7.076642906970692 50.85932369801829 71.62467971904441 H 0.0 **** 0.06
27155 H 5.8794945625104535 49.57092687509328 71.9006097824281 H 0.0 **** 0.06
27156 C 100.68710658492078 93.20993199589972 77.56556625676188 C 0.0 **** -0.24
27157 H 100.36461517153272 93.92083149563281 76.80457945384859 H 0.0 **** 0.06
27158 H 99.97950047772859 93.21901687028496 78.39504790383461 H 0.0 **** 0.06
27159 H 101.67558548415931 93.49101883379713 77.9293909115786 H 0.0 **** 0.06
27160 H 100.72922250981759 92.20973463158838 77.13424132877833 H 0.0 **** 0.06
27161 C 76.78826702197816 106.36045875617458 87.0129762804118 C 0.0 **** -0.24
27162 H 77.31894042094524 107.26993550637172 87.2967764691137 H 0.0 **** 0.06
27163 H 77.40072313978902 105.49215435019107 87.25690596390473 H 0.0 **** 0.06
27164 H 76.58890709392382 106.37609660950119 85.94156236630482 H 0.0 **** 0.06
27165 H 75.84553345657254 106.30543250858312 87.5575231134381 H 0.0 **** 0.06
27166 C 37.21215872215774 39.02555410173168 37.58377774678712 C 0.0 **** -0.24
27167 H 37.44708080037654 40.049076667029006 37.87498361735942 H 0.0 **** 0.06
27168 H 36.82226938886997 39.01790478433257 36.56642065300389 H 0.0 **** 0.06
27169 H 36.46415083177709 38.617135706439534 38.26373240942431 H 0.0 **** 0.06
27170 H 38.116556850262015 38.41855730931664 37.631303023063026 H 0.0 **** 0.06
27171 C 51.39211894509331 57.80339328250814 28.13939404547915 C 0.0 **** -0.24
27172 H 52.16343190342255 57.126898963974085 28.506816744758964 H 0.0 **** 0.06
27173 H 51.75183414185738 58.313117401646025 27.245772765703634 H 0.0 **** 0.06
27174 H 51.15916854462349 58.540183765644045 28.90907168440947 H 0.0 **** 0.06
27175 H 50.494493882531444 57.234106548466684 27.897978286581036 H 0.0 **** 0.06
27176 C 51.07432968449134 84.70096748582529 10.025514881414226 C 0.0 **** -0.24
27177 H 50.91230579507647 85.77732983235157 9.97661678441478 H 0.0 **** 0.06
27178 H 51.60599295141135 84.37310815465881 9.13089135855975 H 0.0 **** 0.06
27179 H 50.11246623482007 84.19045921379734 10.084479020652475 H 0.0 **** 0.06
27180 H 51.66738680487572 84.46269214787661 10.908579902492772 H 0.0 **** 0.06
27181 C 45.861277901991684 80.03087026502575 28.678784302791144 C 0.0 **** -0.24
27182 H 46.506182263140204 80.90790514362658 28.723291004970065 H 0.0 **** 0.06
27183 H 46.42443004859723 79.1500506350929 28.988603906097865 H 0.0 **** 0.06
27184 H 45.50359484706931 79.89362443349879 27.657847886334253 H 0.0 **** 0.06
27185 H 45.01080506065037 80.17093831198719 29.345646787725855 H 0.0 **** 0.06
27186 C 24.865971407429697 68.52842446869477 12.214929370471879 C 0.0 **** -0.24
27187 H 24.098391224513662 68.64566735442668 12.979384365632399 H 0.0 **** 0.06
27188 H 25.78649953022395 68.17220166052408 12.676895791205112 H 0.0 **** 0.06
27189 H 25.049080599798558 69.48978298879877 11.73416377028613 H 0.0 **** 0.06
27190 H 24.530005906581493 67.80822287564473 11.469776033453442 H 0.0 **** 0.06
27191 C 35.178506842905506 72.60603404243828 72.84819494394193 C 0.0 **** -0.24
27192 H 34.14144625769973 72.86924544218262 73.05465505294322 H 0.0 **** 0.06
27193 H 35.81205300239469 72.9603494454138 73.6620503491171 H 0.0 **** 0.06
27194 H 35.49350428658863 73.07108375769147 71.91444441675023 H 0.0 **** 0.06
27195 H 35.268725383985554 71.5228992865667 72.76296909753992 H 0.0 **** 0.06
27196 C 89.71398335805648 94.31663775812959 34.46850184819431 C 0.0 **** -0.24
27197 H 90.54165891221243 93.94428955384879 35.073420659949704 H 0.0 **** 0.06
27198 H 89.65277040222114 95.4002744099727 34.565069197794 H 0.0 **** 0.06
27199 H 88.78247456077818 93.86688792377996 34.81293207043939 H 0.0 **** 0.06
27200 H 89.8803197207412 94.05277908778297 33.423983043531194 H 0.0 **** 0.06
27201 C 5.567455719012912 80.13281930944483 6.709609781677095 C 0.0 **** -0.24
27202 H 6.044240031576948 79.21451004905222 6.367234962868922 H 0.0 **** 0.06
27203 H 6.306155983727606 80.93388228583191 6.741978733108022 H 0.0 **** 0.06
27204 H 5.1554462932667775 79.9782737529746 7.706304600698104 H 0.0 **** 0.06
27205 H 4.766679382403993 80.40333036570513 6.021883308814131 H 0.0 **** 0.06
27206 C 49.20121380576796 79.47992895501382 43.931697324671006 C 0.0 **** -0.24
27207 H 48.53005305281397 79.2735484542437 44.765982099138796 H 0.0 **** 0.06
27208 H 50.15856794672777 78.98656228793362 44.105395857339374 H 0.0 **** 0.06
27209 H 49.35647651570895 80.55519613163966 43.84781251046729 H 0.0 **** 0.06
27210 H 48.760344932797295 79.10310468162352 43.00958738320344 H 0.0 **** 0.06
27211 C 98.30335289484644 52.168801521609765 11.62082328932987 C 0.0 **** -0.24
27212 H 98.28248721258555 51.20362268080291 11.115112779709579 H 0.0 **** 0.06
27213 H 97.67630116805708 52.876248205973695 11.077667643902165 H 0.0 **** 0.06
27214 H 99.32709843383788 52.54015277009938 11.653226660302579 H 0.0 **** 0.06
27215 H 97.92553144497765 52.05432015282588 12.636753734476084 H 0.0 **** 0.06
27216 C 6.005169943895822 5.743918212085944 47.317746732854225 C 0.0 **** -0.24
27217 H 5.94420153556797 6.089689465298633 48.34967153767476 H 0.0 **** 0.06
27218 H 6.201504592284721 4.670855895529485 47.305427125728045 H 0.0 **** 0.06
27219 H 6.8145086428451975 6.266547040817045 46.80759606900899 H 0.0 **** 0.06
27220 H 5.06294258498977 5.947355375238303 46.80982883729192 H 0.0 **** 0.06
27221 C 30.312028042744828 40.33058382519627 83.25975807073864 C 0.0 **** -0.24
27222 H 30.687486642046963 39.689520357811546 84.05799313930494 H 0.0 **** 0.06
27223 H 29.70336797005905 39.73908779763764 82.57606218990064 H 0.0 **** 0.06
27224 H 31.15247592747494 40.76450361211457 82.71708899469263 H 0.0 **** 0.06
27225 H 29.706539263983416 41.12782292961418 83.68987528179393 H 0.0 **** 0.06
27226 C 103.22232149528134 103.14024090452558 16.984986231085117 C 0.0 **** -0.24
27227 H 102.44690784212236 103.72513702176286 16.48989136786426 H 0.0 **** 0.06
27228 H 102.85311813906733 102.79055062332374 17.94896926256928 H 0.0 **** 0.06
27229 H 104.10435260853541 103.7621002726245 17.136893219821047 H 0.0 **** 0.06
27230 H 103.48380299553045 102.28439830857856 16.363656586362083 H 0.0 **** 0.06
27231 C 13.699100560955234 0.21114556024181752 42.22399498981366 C 0.0 **** -0.24
27232 H 14.785962977718174 0.19672264059096278 42.143355247267294 H 0.0 **** 0.06
27233 H 13.278539398645993 0.7261669117936265 41.35913539688235 H 0.0 **** 0.06
27234 H 13.4087804272589 0.73274212857865 43.1347775349403 H 0.0 **** 0.06
27235 H 13.324575358388568 -0.8125570291391853 42.255612083103614 H 0.0 **** 0.06
27236 C 19.86377935243422 99.86372754785504 84.83843254527773 C 0.0 **** -0.24
27237 H 19.38290269977142 98.97154603467762 84.43908628511122 H 0.0 **** 0.06
27238 H 19.720443317383797 99.90239401932075 85.91795112315967 H 0.0 **** 0.06
27239 H 19.422507643471306 100.74981155338114 84.38111191052465 H 0.0 **** 0.06
27240 H 20.930116919133695 99.83349994545827 84.61391037075407 H 0.0 **** 0.06
27241 C 57.41971063817002 93.35989859137852 53.04716177296214 C 0.0 **** -0.24
27242 H 56.45835152782057 93.87205502228207 53.05852361139307 H 0.0 **** 0.06
27243 H 57.259382965679166 92.28251900010989 53.097341459624914 H 0.0 **** 0.06
27244 H 58.011902134672084 93.67905104705395 53.90507474641197 H 0.0 **** 0.06
27245 H 57.951632365247505 93.60565473706082 52.12759016652953 H 0.0 **** 0.06
27246 C 25.97674679281162 94.0447247474194 14.48549649663019 C 0.0 **** -0.24
27247 H 26.223502457438084 95.01896514267808 14.905802262036133 H 0.0 **** 0.06
27248 H 24.935609865117375 94.04100344723997 14.163394432342045 H 0.0 **** 0.06
27249 H 26.126377476349735 93.27437698038028 15.242846312467279 H 0.0 **** 0.06
27250 H 26.623408539663465 93.84309419724649 13.631432435487909 H 0.0 **** 0.06
27251 C 67.63604910105613 0.5260020141831347 97.74097921702001 C 0.0 **** -0.24
27252 H 68.06925174817687 0.1371091817564718 96.81918609391242 H 0.0 **** 0.06
27253 H 66.55684144028743 0.6266170026494251 97.62168043375219 H 0.0 **** 0.06
27254 H 68.06976556473859 1.501246616789075 97.96216624877371 H 0.0 **** 0.06
27255 H 67.84943242698057 -0.1600828698024941 98.55987221179296 H 0.0 **** 0.06
27256 C 85.58454269488936 16.741700697649406 14.816031116630388 C 0.0 **** -0.24
27257 H 86.39633620466049 17.459963405082163 14.93039318479035 H 0.0 **** 0.06
27258 H 84.63777716084729 17.22070073264149 15.067146095064924 H 0.0 **** 0.06
27259 H 85.75206123793714 15.896408058277814 15.483879618842735 H 0.0 **** 0.06
27260 H 85.55279088928006 16.38954368451334 13.785592419055188 H 0.0 **** 0.06
27261 C 78.69091680743378 4.746697856550924 37.29595876726515 C 0.0 **** -0.24
27262 H 78.97548629912279 4.494586889693323 38.31812119553538 H 0.0 **** 0.06
27263 H 77.66340134502639 5.11232542646664 37.28555540610361 H 0.0 **** 0.06
27264 H 78.76788165575215 3.8588008558765665 36.668574494220564 H 0.0 **** 0.06
27265 H 79.35586667263112 5.520649095127695 36.91376402076696 H 0.0 **** 0.06
27266 C 21.80158226671898 35.1202251856792 65.68696139737104 C 0.0 **** -0.24
27267 H 21.063435649963594 35.81066185543938 66.09353417990043 H 0.0 **** 0.06
27268 H 22.8018051605803 35.52771219304725 65.83617680815635 H 0.0 **** 0.06
27269 H 21.620989987872264 34.979858814760576 64.62113804103957 H 0.0 **** 0.06
27270 H 21.720321614875786 34.1605499793327 66.19820688748158 H 0.0 **** 0.06
27271 C 18.425954270338035 32.1453479791023 83.85590219569667 C 0.0 **** -0.24
27272 H 19.285934890868067 31.65160066422345 83.40284629172268 H 0.0 **** 0.06
27273 H 18.70472101109855 33.154778012477294 84.16006969683136 H 0.0 **** 0.06
27274 H 18.09961536070997 31.579357068284907 84.72793939379571 H 0.0 **** 0.06
27275 H 17.613354526334142 32.196124583788304 83.13057527570757 H 0.0 **** 0.06
27276 C 104.38685478266017 106.31459207535619 70.2003519299987 C 0.0 **** -0.24
27277 H 103.5483898789397 106.78173827783013 70.71748418035753 H 0.0 **** 0.06
27278 H 104.47252117864362 106.73116376646263 69.19727418978454 H 0.0 **** 0.06
27279 H 104.21955781417128 105.23896161625771 70.13494856807074 H 0.0 **** 0.06
27280 H 105.30593115344499 106.50628785789323 70.75340800567795 H 0.0 **** 0.06
27281 C 90.90715057819592 56.11168243864043 73.02180862027501 C 0.0 **** -0.24
27282 H 91.23799021645912 56.84880517866972 73.75378944659224 H 0.0 **** 0.06
27283 H 91.6771270316831 55.986081624497984 72.26013058093434 H 0.0 **** 0.06
27284 H 89.98432219562959 56.452928908282985 72.5535455584585 H 0.0 **** 0.06
27285 H 90.73069625640028 55.15852888271911 73.52099386808709 H 0.0 **** 0.06
27286 C 78.14520301209251 34.81698213439827 95.30297412761982 C 0.0 **** -0.24
27287 H 78.74869609832835 34.39452927959127 94.5005494792115 H 0.0 **** 0.06
27288 H 78.02561820566912 35.888582091828226 95.14114475630649 H 0.0 **** 0.06
27289 H 78.63982038802234 34.6464207661011 96.25851749052738 H 0.0 **** 0.06
27290 H 77.16562525480977 34.338467974047234 95.31074241953073 H 0.0 **** 0.06
27291 C 93.58961095785986 18.863501244870456 67.26015678149753 C 0.0 **** -0.24
27292 H 93.93345390697294 17.91168443095572 67.66377719706577 H 0.0 **** 0.06
27293 H 93.02642014131649 18.687713750192014 66.34314281788599 H 0.0 **** 0.06
27294 H 94.44996310410312 19.497227907707593 67.04337015555018 H 0.0 **** 0.06
27295 H 92.94917206352682 19.358053571736466 67.99144386012995 H 0.0 **** 0.06
27296 C 51.57575299666411 56.320221016190715 103.9200928381533 C 0.0 **** -0.24
27297 H 51.49692841011944 55.44235025779972 104.56208845031607 H 0.0 **** 0.06
27298 H 52.5867053468547 56.38585212204276 103.51791301537033 H 0.0 **** 0.06
27299 H 51.3568515224604 57.21611758639551 104.50169082619153 H 0.0 **** 0.06
27300 H 50.86220489862498 56.23438381196081 103.10071454695628 H 0.0 **** 0.06
27301 C 69.58113950743501 22.404857549624698 104.81800603199889 C 0.0 **** -0.24
27302 H 69.53925459674997 21.632639299416436 105.58608436899215 H 0.0 **** 0.06
27303 H 69.02650331795968 22.07270788031331 103.93903952899743 H 0.0 **** 0.06
27304 H 70.62003800346451 22.589401196952892 104.54414059660215 H 0.0 **** 0.06
27305 H 69.13677653231827 23.323462167096444 105.20200452168774 H 0.0 **** 0.06
27306 C 13.44447342468326 38.07771275813434 106.51680816688022 C 0.0 **** -0.24
27307 H 13.23182791714742 37.942865459958625 105.45679601974383 H 0.0 **** 0.06
27308 H 12.50941312434189 38.08803099561834 107.07665856258684 H 0.0 **** 0.06
27309 H 13.967530874166805 39.02194751633235 106.66558752175484 H 0.0 **** 0.06
27310 H 14.069863984184263 37.25599738145186 106.86883131094098 H 0.0 **** 0.06
27311 C 34.16690927180241 63.98052174743299 52.31277659194428 C 0.0 **** -0.24
27312 H 35.11264430832027 64.39346481463632 52.66353999539132 H 0.0 **** 0.06
27313 H 33.854660737387164 64.5051174707782 51.409840336130344 H 0.0 **** 0.06
27314 H 33.40891145577169 64.10339576645795 53.08567629070803 H 0.0 **** 0.06
27315 H 34.293326752190495 62.92068015931828 52.09184869912951 H 0.0 **** 0.06
27316 C 20.887983955927552 58.79212266230669 67.89985460040202 C 0.0 **** -0.24
27317 H 21.227408313543492 57.80975393950367 68.22677884347797 H 0.0 **** 0.06
27318 H 20.79954421541504 59.451132674211024 68.76302774726616 H 0.0 **** 0.06
27319 H 19.918272371973956 58.69786316791028 67.41275376402115 H 0.0 **** 0.06
27320 H 21.60944244215176 59.20953399252791 67.19615350940859 H 0.0 **** 0.06
27321 C 71.0747060943528 53.41394114628031 15.540242188178013 C 0.0 **** -0.24
27322 H 72.14126593948868 53.63764857557811 15.541117832024327 H 0.0 **** 0.06
27323 H 70.74531286466323 53.209756560134224 16.558877770121228 H 0.0 **** 0.06
27324 H 70.88745481480193 52.540820398256585 14.914506729804913 H 0.0 **** 0.06
27325 H 70.52600257878265 54.268736424084295 15.145017966481547 H 0.0 **** 0.06
27326 C 21.347894195625514 71.32640109307243 9.811820462362746 C 0.0 **** -0.24
27327 H 21.223810141605156 72.25982651964466 10.361001521756606 H 0.0 **** 0.06
27328 H 20.518937790232542 70.65608829934138 10.042169784878752 H 0.0 **** 0.06
27329 H 22.287753617994866 70.8557692867364 10.103693319275962 H 0.0 **** 0.06
27330 H 21.361862549057747 71.53381878536828 8.741956695077562 H 0.0 **** 0.06
27331 C 80.47916121907502 10.594630864341205 87.28486678889142 C 0.0 **** -0.24
27332 H 80.30827452440951 9.609904314554589 86.84847805939083 H 0.0 **** 0.06
27333 H 81.53393212595057 10.855081621800291 87.19202560542234 H 0.0 **** 0.06
27334 H 80.19974195552908 10.578791526501961 88.33825261121764 H 0.0 **** 0.06
27335 H 79.87386839872204 11.333309182308408 86.75890797203401 H 0.0 **** 0.06
27336 C 79.0178190382355 76.50401620029429 26.827771193241603 C 0.0 **** -0.24
27337 H 78.18065841154791 75.95122799170596 27.254024626001893 H 0.0 **** 0.06
27338 H 79.91673589438119 75.88931276909324 26.8692906245999 H 0.0 **** 0.06
27339 H 79.17636883915125 77.41934647926425 27.398162425664083 H 0.0 **** 0.06
27340 H 78.79582951983824 76.7566605033865 25.790572922268893 H 0.0 **** 0.06
27341 C 56.424810418558764 46.67005748524063 80.51478669681529 C 0.0 **** -0.24
27342 H 55.60034011436335 46.73036767759657 79.80414394602927 H 0.0 **** 0.06
27343 H 57.083893234692425 45.84708294150723 80.2372664698356 H 0.0 **** 0.06
27344 H 56.030035404608384 46.498431291908744 81.51594194098561 H 0.0 **** 0.06
27345 H 56.98453680953105 47.605082881295445 80.50127496269324 H 0.0 **** 0.06
27346 C 85.30738008926772 23.952735112843612 54.84646344051771 C 0.0 **** -0.24
27347 H 84.50514789103106 23.353067559849677 54.41433369533698 H 0.0 **** 0.06
27348 H 86.23766147770961 23.753043000965192 54.313693927513526 H 0.0 **** 0.06
27349 H 85.42817273502766 23.692619064245065 55.898114281198104 H 0.0 **** 0.06
27350 H 85.0568334374886 25.00937422295945 54.759493246551585 H 0.0 **** 0.06
27351 C 57.133077554835126 2.7166955529909256 104.18779775675694 C 0.0 **** -0.24
27352 H 56.72914485749115 2.7749971273507876 103.17758839093307 H 0.0 **** 0.06
27353 H 57.514710043717 1.7116287424702898 104.36910711526559 H 0.0 **** 0.06
27354 H 56.34522085875875 2.942594487142488 104.90719768704832 H 0.0 **** 0.06
27355 H 57.942591059829596 3.438299447567881 104.29709279651786 H 0.0 **** 0.06
27356 C 52.99176615314565 56.94931996506411 4.373035769064359 C 0.0 **** -0.24
27357 H 52.89793644132999 56.563743601222505 3.3575577603568405 H 0.0 **** 0.06
27358 H 54.03829862761461 57.174348991109675 4.5803602950783215 H 0.0 **** 0.06
27359 H 52.632997383059205 56.20211696945464 5.0802615593713085 H 0.0 **** 0.06
27360 H 52.39721101448225 57.85821859334314 4.472148020278283 H 0.0 **** 0.06
27361 C 99.76189643931099 44.15523802969959 106.44478274582733 C 0.0 **** -0.24
27362 H 98.93746527034526 43.599139875566784 106.89183848012416 H 0.0 **** 0.06
27363 H 99.87962571218785 43.85486062689006 105.40395091026261 H 0.0 **** 0.06
27364 H 100.68074129433649 43.942884769868336 106.99147273020577 H 0.0 **** 0.06
27365 H 99.54799504794042 45.222450517161356 106.49368429912806 H 0.0 **** 0.06
27366 C 89.49636698245439 24.712823256573785 69.87820370005414 C 0.0 **** -0.24
27367 H 89.89629778760707 23.70418919156083 69.77559586386081 H 0.0 **** 0.06
27368 H 89.08031647963503 25.038599776427617 68.92477339183432 H 0.0 **** 0.06
27369 H 90.29620021450035 25.391443147630724 70.17692366191847 H 0.0 **** 0.06
27370 H 88.71346943309686 24.71703793687449 70.6366767560782 H 0.0 **** 0.06
27371 C 26.6796705684217 5.350976451461662 81.26193929946703 C 0.0 **** -0.24
27372 H 27.370652530485216 4.970199899131245 82.01432276030826 H 0.0 **** 0.06
27373 H 27.077872762188022 6.2735229643427886 80.83735039711871 H 0.0 **** 0.06
27374 H 25.713331018312942 5.552518170146101 81.72530585475137 H 0.0 **** 0.06
27375 H 26.556890833759567 4.610030147563265 80.4723277532566 H 0.0 **** 0.06
27376 C 67.3897342389581 77.6635246495496 106.13041325238552 C 0.0 **** -0.24
27377 H 66.84777947836692 78.55127904690559 105.8026436262481 H 0.0 **** 0.06
27378 H 68.31096854954629 77.9646884841433 106.62922824911807 H 0.0 **** 0.06
27379 H 67.62876037388264 77.04510193256851 105.26625558363888 H 0.0 **** 0.06
27380 H 66.76894223288558 77.09544129124268 106.8235094275536 H 0.0 **** 0.06
27381 C 62.236088952559555 91.01526429525998 8.901943273603322 C 0.0 **** -0.24
27382 H 61.17428155676561 91.25271077817865 8.968184755439651 H 0.0 **** 0.06
27383 H 62.60345747133687 91.26541193050772 7.906731118506897 H 0.0 **** 0.06
27384 H 62.38158139599699 89.95066996861854 9.086690672931496 H 0.0 **** 0.06
27385 H 62.783493439620486 91.59085809647308 9.648321735225721 H 0.0 **** 0.06
27386 C 76.16216293111022 51.82341875677446 67.59382884358149 C 0.0 **** -0.24
27387 H 75.26901449360167 52.30300691703732 67.19276800798707 H 0.0 **** 0.06
27388 H 76.05990506269724 50.741376461914 67.51717726967183 H 0.0 **** 0.06
27389 H 76.28559758582507 52.104825737722024 68.63959827437719 H 0.0 **** 0.06
27390 H 77.03367660296831 52.14790277504457 67.02478247143154 H 0.0 **** 0.06
27391 C 87.62255651067755 64.16434705987473 2.542767115575984 C 0.0 **** -0.24
27392 H 87.35774324887552 64.5875323016384 3.5112674271160813 H 0.0 **** 0.06
27393 H 87.02787769340318 64.64135364981891 1.7629013687908355 H 0.0 **** 0.06
27394 H 87.42273372450211 63.092218656456126 2.548087688151128 H 0.0 **** 0.06
27395 H 88.6818713759294 64.33628363158537 2.3488119782458483 H 0.0 **** 0.06
27396 C 25.320619706646283 49.231071701419495 90.89194420033436 C 0.0 **** -0.24
27397 H 25.712668586118696 49.80606767883339 90.05249315906326 H 0.0 **** 0.06
27398 H 26.14489143746252 48.75150708634666 91.42091173444078 H 0.0 **** 0.06
27399 H 24.63487959510408 48.46933026886521 90.52086038126606 H 0.0 **** 0.06
27400 H 24.78995823895167 49.89715124968336 91.57211854567902 H 0.0 **** 0.06
27401 C 104.02174562417866 32.81330130644689 55.68732467063796 C 0.0 **** -0.24
27402 H 104.9509485401116 32.82907861907603 56.2576419180902 H 0.0 **** 0.06
27403 H 104.13255669441938 33.431861411299984 54.79639704407657 H 0.0 **** 0.06
27404 H 103.21174053414217 33.204113131746816 56.303625412696476 H 0.0 **** 0.06
27405 H 103.79382700843024 31.788633152142836 55.3939580422375 H 0.0 **** 0.06
27406 C 92.09542028987809 4.363768420791672 94.21480555277677 C 0.0 **** -0.24
27407 H 92.58506581722034 4.139773112154103 95.16219039388527 H 0.0 **** 0.06
27408 H 91.15305497344164 4.8782929509903 94.4056507163407 H 0.0 **** 0.06
27409 H 91.89914225363432 3.4347932696378507 93.67848954821577 H 0.0 **** 0.06
27410 H 92.74220602630143 5.001269083417441 93.61242959023883 H 0.0 **** 0.06
27411 C 22.238345751955862 100.25209081452121 54.592475737274356 C 0.0 **** -0.24
27412 H 21.398502444213648 99.97038997213505 53.95628738298615 H 0.0 **** 0.06
27413 H 23.143271621582073 99.75835681414094 54.23721857684055 H 0.0 **** 0.06
27414 H 22.03413217484993 99.94502541932368 55.61816592541754 H 0.0 **** 0.06
27415 H 22.373908435965888 101.33241638078542 54.55634989869057 H 0.0 **** 0.06
27416 C 89.24802675052786 91.1272295736095 31.962175381781663 C 0.0 **** -0.24
27417 H 88.93010430894623 90.2764564538964 32.56638247584556 H 0.0 **** 0.06
27418 H 89.8563834303983 91.79663785072704 32.571118283825086 H 0.0 **** 0.06
27419 H 88.37035265798139 91.66271047691328 31.59941771927751 H 0.0 **** 0.06
27420 H 89.83338861843919 90.77219106029024 31.11488512701942 H 0.0 **** 0.06
27421 C 11.642174734115429 83.00915604732171 59.75062797229506 C 0.0 **** -0.24
27422 H 12.095359243987929 83.69673097471298 60.46463652910039 H 0.0 **** 0.06
27423 H 12.411128392441 82.36143782961469 59.33009608359466 H 0.0 **** 0.06
27424 H 11.1676157609473 83.57707453719354 58.950396707374594 H 0.0 **** 0.06
27425 H 10.89254546712408 82.40147543040601 60.25827053832012 H 0.0 **** 0.06
27426 C 23.94784369765813 70.46605031169833 55.63043549140073 C 0.0 **** -0.24
27427 H 24.134694842980878 71.38184487269154 55.06971838452435 H 0.0 **** 0.06
27428 H 23.2930851414755 70.68369876785027 56.47415172466552 H 0.0 **** 0.06
27429 H 24.892934362744825 70.06450757967363 55.99616870098484 H 0.0 **** 0.06
27430 H 23.470155284522264 69.73348668431089 54.978821280006514 H 0.0 **** 0.06
27431 C 18.365456592683014 76.26988718943028 105.0745275181655 C 0.0 **** -0.24
27432 H 17.631177159950646 75.9466079981811 104.33754045746053 H 0.0 **** 0.06
27433 H 19.007527464982665 75.43086754483369 105.34027491632898 H 0.0 **** 0.06
27434 H 17.85047765675833 76.6305244203906 105.96560846008069 H 0.0 **** 0.06
27435 H 18.970891740134117 77.07285665987439 104.65515420378082 H 0.0 **** 0.06
27436 C 96.267820725698 38.19726801700219 22.90570823949806 C 0.0 **** -0.24
27437 H 97.19114886010809 38.07629403537027 23.472458777058364 H 0.0 **** 0.06
27438 H 95.42380065177095 38.24642230824949 23.592544177190128 H 0.0 **** 0.06
27439 H 96.14129623914837 37.34914722689069 22.23334869736264 H 0.0 **** 0.06
27440 H 96.31775341151163 39.11766480195445 22.323837809982823 H 0.0 **** 0.06
27441 C 58.12525797370749 29.48677804719037 40.51487024423207 C 0.0 **** -0.24
27442 H 57.82701725438444 29.13971894627221 41.50441215014462 H 0.0 **** 0.06
27443 H 57.241911979930144 29.80541561478401 39.960634098941085 H 0.0 **** 0.06
27444 H 58.61750876685506 28.67508542894481 39.97847021325248 H 0.0 **** 0.06
27445 H 58.81371593500331 30.325838930978364 40.6163107914619 H 0.0 **** 0.06
27446 C 28.89416255023275 92.79757501886613 78.50344499873879 C 0.0 **** -0.24
27447 H 28.118921310552906 93.32689028390669 77.94940973003322 H 0.0 **** 0.06
27448 H 29.40174088159894 92.0975653089703 77.83916012862494 H 0.0 **** 0.06
27449 H 28.441039013552853 92.25208077813701 79.3310129929515 H 0.0 **** 0.06
27450 H 29.61552224606129 93.5159512845274 78.89325578625413 H 0.0 **** 0.06
27451 C 43.39853643880144 86.86568276748254 59.57723015441128 C 0.0 **** -0.24
27452 H 43.11212911877482 86.28769709405525 58.698757558264774 H 0.0 **** 0.06
27453 H 43.71005562031064 87.86384318309912 59.26935307827078 H 0.0 **** 0.06
27454 H 44.222804348657746 86.36719122517057 60.08726181968875 H 0.0 **** 0.06
27455 H 42.54638154397418 86.94289029517674 60.25328620963694 H 0.0 **** 0.06
27456 C 83.12446446376573 94.33608156325249 22.27591225460047 C 0.0 **** -0.24
27457 H 82.32118365624939 94.5372109604233 22.984269924597125 H 0.0 **** 0.06
27458 H 83.53371682827036 95.27989765074375 21.912884028687525 H 0.0 **** 0.06
27459 H 82.73379324141838 93.76254279988677 21.435768244057762 H 0.0 **** 0.06
27460 H 83.91130997203744 93.7657915900698 22.770341453531366 H 0.0 **** 0.06
27461 C 40.51537611167916 17.56114093577645 95.42784822285118 C 0.0 **** -0.24
27462 H 40.979403852043866 17.84162211987649 94.48275392755339 H 0.0 **** 0.06
27463 H 39.48610183380683 17.25048365966427 95.24871357968492 H 0.0 **** 0.06
27464 H 40.524196464930284 18.416054580350135 96.10463815353408 H 0.0 **** 0.06
27465 H 41.072245636827525 16.738026910973815 95.87569679700624 H 0.0 **** 0.06
27466 C 40.43011388767093 76.01526090391219 29.489483993088953 C 0.0 **** -0.24
27467 H 40.39267978542546 76.97641389615538 30.001484272972704 H 0.0 **** 0.06
27468 H 39.8506361795466 75.28142179038582 30.05098601215127 H 0.0 **** 0.06
27469 H 41.465830241513345 75.68203640760235 29.417194182038486 H 0.0 **** 0.06
27470 H 40.011300309392425 76.12022782997211 28.487940732294845 H 0.0 **** 0.06
27471 C 97.55153310236477 74.68250194577678 26.91234789090055 C 0.0 **** -0.24
27472 H 98.1245771722522 73.83660461612891 27.290832852443984 H 0.0 **** 0.06
27473 H 97.91077115108328 74.9488988202901 25.9177401841429 H 0.0 **** 0.06
27474 H 97.6731149140814 75.53335705754667 27.583508228900854 H 0.0 **** 0.06
27475 H 96.49694501343197 74.41236179457714 26.857284550302722 H 0.0 **** 0.06
27476 C 48.28321146516573 60.1285752989744 13.328623522550828 C 0.0 **** -0.24
27477 H 48.071734689605925 59.550270275382616 14.227654416754106 H 0.0 **** 0.06
27478 H 47.35028370241556 60.51410670867472 12.91700471411906 H 0.0 **** 0.06
27479 H 48.76973405868555 59.49021540800919 12.592267599270002 H 0.0 **** 0.06
27480 H 48.94133836878283 60.96175147014958 13.579508462289951 H 0.0 **** 0.06
27481 C 99.972385707121 93.97765177492208 49.02095977114297 C 0.0 **** -0.24
27482 H 100.04958027385273 94.75740098838591 49.779485266233735 H 0.0 **** 0.06
27483 H 100.26820953185131 94.38311757227551 48.05215402719442 H 0.0 **** 0.06
27484 H 98.94336420597237 93.62350797462645 48.96795429428661 H 0.0 **** 0.06
27485 H 100.62964593097058 93.14866477279314 49.283969787511836 H 0.0 **** 0.06
27486 C 14.486935238158708 18.7481650025112 36.10056603383029 C 0.0 **** -0.24
27487 H 14.633551739435262 18.309295492495252 37.08724168485341 H 0.0 **** 0.06
27488 H 13.5517032555897 19.30932055406487 36.087981632503755 H 0.0 **** 0.06
27489 H 14.44466814128458 17.95566090440731 35.352790334557284 H 0.0 **** 0.06
27490 H 15.315690058502355 19.417893105618134 35.87376796657122 H 0.0 **** 0.06
27491 C 104.16385115087508 47.819950078494244 74.57873617901063 C 0.0 **** -0.24
27492 H 105.0111753963144 48.43576679089693 74.27792379981466 H 0.0 **** 0.06
27493 H 103.83154787315588 48.12106462728692 75.57330611971675 H 0.0 **** 0.06
27494 H 104.46445652762345 46.772143451664846 74.59795626953174 H 0.0 **** 0.06
27495 H 103.34824305952904 47.95096324313026 73.86799032188456 H 0.0 **** 0.06
27496 C 30.941944519487976 42.18201762562097 79.40534316609461 C 0.0 **** -0.24
27497 H 31.332420285287128 42.04443232972483 80.41442331202687 H 0.0 **** 0.06
27498 H 31.704818664633336 41.898079394678405 78.67890946071743 H 0.0 **** 0.06
27499 H 30.672640860936284 43.22763055357598 79.26023012133341 H 0.0 **** 0.06
27500 H 30.05968494441879 41.55630326952041 79.27008305250214 H 0.0 **** 0.06
27501 C 73.25665762847896 104.41444850897628 54.80615994776002 C 0.0 **** -0.24
27502 H 72.22874862396333 104.24946896807594 54.48169025345118 H 0.0 **** 0.06
27503 H 73.87687469806359 103.5764129065985 54.484839359396915 H 0.0 **** 0.06
27504 H 73.2857724347082 104.49407687443934 55.89262132995003 H 0.0 **** 0.06
27505 H 73.63359602098619 105.33601045144638 54.36376115206485 H 0.0 **** 0.06
27506 C 90.01077414658356 17.433821268398617 64.3735704487899 C 0.0 **** -0.24
27507 H 91.04776048051983 17.763883022357362 64.31845009840605 H 0.0 **** 0.06
27508 H 89.68140420698464 17.101898475465248 63.38901806064497 H 0.0 **** 0.06
27509 H 89.38410143029375 18.260834883606975 64.7075981433536 H 0.0 **** 0.06
27510 H 89.929570295726 16.608635425995544 65.08165095570048 H 0.0 **** 0.06
27511 C 102.05689534679237 104.69196438414374 10.035106270894289 C 0.0 **** -0.24
27512 H 101.45634876774756 105.50502627477775 10.442188382065325 H 0.0 **** 0.06
27513 H 102.85104552787476 105.1045579715567 9.411715707744804 H 0.0 **** 0.06
27514 H 101.42415070459111 104.0394968940905 9.432764892657545 H 0.0 **** 0.06
27515 H 102.4952263434007 104.12054007296791 10.852261594565931 H 0.0 **** 0.06
27516 C 14.977138095761632 48.80456206082215 86.05266456036611 C 0.0 **** -0.24
27517 H 14.764774354333284 47.7992123347388 86.41903372754958 H 0.0 **** 0.06
27518 H 16.037787951459762 48.88818638498259 85.81500812900873 H 0.0 **** 0.06
27519 H 14.718184887154536 49.53228253332691 86.8221565270644 H 0.0 **** 0.06
27520 H 14.386861910241066 48.99593216886609 85.15694352128668 H 0.0 **** 0.06
27521 C 75.0030965945576 59.35321879480777 81.19115029985373 C 0.0 **** -0.24
27522 H 74.06006351943176 58.880019000155315 81.4647125032611 H 0.0 **** 0.06
27523 H 75.77771453816331 58.59244613572926 81.09665853795545 H 0.0 **** 0.06
27524 H 75.2878078911155 60.06853802335686 81.96391007423743 H 0.0 **** 0.06
27525 H 74.88548301449248 59.87279732832401 80.24087200289266 H 0.0 **** 0.06
27526 C 46.52636435930454 47.098055307017056 49.9851100682955 C 0.0 **** -0.24
27527 H 45.929183893739726 47.66734427325317 49.272269759094726 H 0.0 **** 0.06
27528 H 45.88707601936305 46.745891956498795 50.794430203999084 H 0.0 **** 0.06
27529 H 47.310965542678964 47.73515757027557 50.3925856753209 H 0.0 **** 0.06
27530 H 46.97644592284355 46.24428883752536 49.479542998245606 H 0.0 **** 0.06
27531 C 30.210736774587424 46.90807925138954 64.81446954975299 C 0.0 **** -0.24
27532 H 30.830267070472715 47.59278189210646 65.39259856366867 H 0.0 **** 0.06
27533 H 29.452820867442668 46.468548029450275 65.46269827259306 H 0.0 **** 0.06
27534 H 30.834417811286002 46.11887067802171 64.39600874415959 H 0.0 **** 0.06
27535 H 29.724054411969846 47.45380589877168 64.00610118502165 H 0.0 **** 0.06
27536 C 53.53378929260856 69.5976242331837 28.440416845922215 C 0.0 **** -0.24
27537 H 53.99937623359227 68.74844403552575 28.94105895244013 H 0.0 **** 0.06
27538 H 54.27259837878328 70.3874157242712 28.303529105958603 H 0.0 **** 0.06
27539 H 52.710906535230635 69.97088483487607 29.049244533659163 H 0.0 **** 0.06
27540 H 53.15373834151152 69.28198117769318 27.46868619711907 H 0.0 **** 0.06
27541 C 3.841509788791413 62.16925541590342 103.76323631050106 C 0.0 **** -0.24
27542 H 3.0491838665987245 62.6463146017274 103.18567340285074 H 0.0 **** 0.06
27543 H 4.516130156980594 62.93102679170502 104.1527801377738 H 0.0 **** 0.06
27544 H 4.396598377229921 61.485239077983096 103.12087656713507 H 0.0 **** 0.06
27545 H 3.4016205856022594 61.614762054825405 104.59171339140418 H 0.0 **** 0.06
27546 C 93.58049553424146 49.193167163312864 91.47943910565073 C 0.0 **** -0.24
27547 H 92.82127868398568 49.0069697052287 92.23848188954577 H 0.0 **** 0.06
27548 H 93.14628775587772 49.05258035395104 90.48897319622057 H 0.0 **** 0.06
27549 H 94.40833344483035 48.496748914434704 91.61593731998482 H 0.0 **** 0.06
27550 H 93.94662824879595 50.214736955183525 91.57417365719454 H 0.0 **** 0.06
27551 C 88.63025211438116 58.28447578205636 71.24881129578766 C 0.0 **** -0.24
27552 H 88.54144388634779 57.53094574639859 70.46631127241545 H 0.0 **** 0.06
27553 H 89.56031674981435 58.83745070410885 71.11569767505347 H 0.0 **** 0.06
27554 H 88.63311106719934 57.796729706984266 72.22342931597649 H 0.0 **** 0.06
27555 H 87.78631832325843 58.972052845290136 71.18747390635482 H 0.0 **** 0.06
27556 C 73.38070306003411 94.49957856464447 26.95338589275118 C 0.0 **** -0.24
27557 H 73.67534118786949 93.52431621552367 27.341376161806892 H 0.0 **** 0.06
27558 H 73.68177958058482 94.58010445727258 25.908916547037638 H 0.0 **** 0.06
27559 H 73.86869792468724 95.28270784556031 27.534383560148854 H 0.0 **** 0.06
27560 H 72.29964045710767 94.609510166236 27.031548179012173 H 0.0 **** 0.06
27561 C 7.457614875680058 98.6510565668296 106.04013228738795 C 0.0 **** -0.24
27562 H 6.868240003184242 99.0428623351956 105.20992972217354 H 0.0 **** 0.06
27563 H 7.373016594081681 99.32324360746509 106.89336869652088 H 0.0 **** 0.06
27564 H 8.502648030029613 98.57408081715243 105.7388978638969 H 0.0 **** 0.06
27565 H 7.0844765816746715 97.66456254542948 106.31481038073133 H 0.0 **** 0.06
27566 C 62.416346006611235 13.866645141543586 87.46153384078704 C 0.0 **** -0.24
27567 H 62.37743710402748 13.004570771323941 86.79449961775956 H 0.0 **** 0.06
27568 H 63.44599964692901 14.21808456118265 87.5392158692703 H 0.0 **** 0.06
27569 H 62.05446555794131 13.578318779003553 88.44866664647313 H 0.0 **** 0.06
27570 H 61.7890654004847 14.663455707009291 87.06178682698862 H 0.0 **** 0.06
27571 C 8.358421359485021 99.46646904640227 94.58907060158478 C 0.0 **** -0.24
27572 H 8.241592289494818 98.54447292223858 95.15760359965387 H 0.0 **** 0.06
27573 H 7.570601499871202 99.53201880964104 93.83765801682452 H 0.0 **** 0.06
27574 H 9.331245292403196 99.46887902740912 94.09711480165353 H 0.0 **** 0.06
27575 H 8.29042875577521 100.31970152177121 95.26333984872892 H 0.0 **** 0.06
27576 C 74.61893974487946 20.45843777905381 1.9771768755832486 C 0.0 **** -0.24
27577 H 75.60088471705295 20.617617416586228 1.5314957948558323 H 0.0 **** 0.06
27578 H 74.58953001161542 19.4751801838176 2.447782149213917 H 0.0 **** 0.06
27579 H 73.85504170243505 20.51343144377796 1.201640815111638 H 0.0 **** 0.06
27580 H 74.43234385425052 21.226264621951145 2.727286581760909 H 0.0 **** 0.06
27581 C 16.048703121519964 87.35708600293043 46.92358270640054 C 0.0 **** -0.24
27582 H 16.620615501714155 87.59773148025164 47.81910860681765 H 0.0 **** 0.06
27583 H 15.156183513957536 86.79733453275145 47.202162537296715 H 0.0 **** 0.06
27584 H 16.661150517453876 86.75503157468683 46.252888791723336 H 0.0 **** 0.06
27585 H 15.757350028909517 88.2794101415671 46.42081011633485 H 0.0 **** 0.06
27586 C 46.29542888515775 41.62360012622485 33.56035337835149 C 0.0 **** -0.24
27587 H 47.01752631516161 40.92100618947788 33.974968521211224 H 0.0 **** 0.06
27588 H 45.328905101402725 41.13006461692851 33.45224119093268 H 0.0 **** 0.06
27589 H 46.63984657194078 41.965619721631604 32.583974456953115 H 0.0 **** 0.06
27590 H 46.19407941115675 42.478092733480885 34.23013425185147 H 0.0 **** 0.06
27591 C 62.88185862420184 49.43271130459377 39.20636175146341 C 0.0 **** -0.24
27592 H 63.87920465703721 49.83537699302829 39.37903738608345 H 0.0 **** 0.06
27593 H 62.72956183142952 49.285421649945306 38.13702075602181 H 0.0 **** 0.06
27594 H 62.137667397432296 50.13168015278163 39.58759220233703 H 0.0 **** 0.06
27595 H 62.781145029708796 48.47767462836404 39.72302167407005 H 0.0 **** 0.06
27596 C 51.36146309989033 44.001513984538974 1.736933939795036 C 0.0 **** -0.24
27597 H 51.393958624206306 45.087837284221735 1.643566289064239 H 0.0 **** 0.06
27598 H 51.43943385142458 43.725414678201105 2.788805829231115 H 0.0 **** 0.06
27599 H 52.19394687106214 43.56539374077465 1.1845757032803332 H 0.0 **** 0.06
27600 H 50.421020056896566 43.63067254978478 1.3310581515811313 H 0.0 **** 0.06
27601 C 63.00105015419503 66.21360574447172 57.086969590026285 C 0.0 **** -0.24
27602 H 62.48638874618558 65.2857649608833 56.8366041799153 H 0.0 **** 0.06
27603 H 63.78061745211235 66.4056054248023 56.348959623444784 H 0.0 **** 0.06
27604 H 63.45105407826851 66.12275491194112 58.076529789599505 H 0.0 **** 0.06
27605 H 62.28760916854891 67.03688581014137 57.08623457853548 H 0.0 **** 0.06
27606 C 31.106584036750142 90.04149311948424 10.532363483436882 C 0.0 **** -0.24
27607 H 31.089776304137025 89.86133076973908 9.457061303964139 H 0.0 **** 0.06
27608 H 30.23870838915971 90.63918838386712 10.813463112126101 H 0.0 **** 0.06
27609 H 32.018841599879124 90.57599821316967 10.79688406939161 H 0.0 **** 0.06
27610 H 31.077808132349595 89.08809037784715 11.059458204759665 H 0.0 **** 0.06
27611 C 75.94164085527476 66.4110310008677 73.96970719626177 C 0.0 **** -0.24
27612 H 75.96571854388802 67.45191166590729 74.29415822119542 H 0.0 **** 0.06
27613 H 76.95190291351187 66.00192031040297 73.98987494171689 H 0.0 **** 0.06
27614 H 75.54658732529046 66.35601316033177 72.95560886536853 H 0.0 **** 0.06
27615 H 75.30271033723076 65.83628328479256 74.64011196874945 H 0.0 **** 0.06
27616 C 76.30940792227659 47.76045212050704 8.086785157139786 C 0.0 **** -0.24
27617 H 75.70136097950552 47.08048959724121 8.684455336935798 H 0.0 **** 0.06
27618 H 75.752666955931 48.06096896337067 7.198964877509582 H 0.0 **** 0.06
27619 H 77.22790603135209 47.255670503331004 7.787643983357896 H 0.0 **** 0.06
27620 H 76.5551645158524 48.64226466096241 8.678286667266491 H 0.0 **** 0.06
27621 C 96.32966277547817 89.19474889557708 64.5039383788473 C 0.0 **** -0.24
27622 H 96.21296119126305 90.11671822372887 63.93392607498242 H 0.0 **** 0.06
27623 H 95.57688834503949 89.15700381514625 65.2919115472863 H 0.0 **** 0.06
27624 H 97.32371215549063 89.16590092142901 64.94859922342022 H 0.0 **** 0.06
27625 H 96.20354760306165 88.33883850180602 63.839787690677554 H 0.0 **** 0.06
27626 C 106.69456768798364 87.79349718684074 22.716908757694938 C 0.0 **** -0.24
27627 H 107.7085126654223 87.54128560999197 23.024292104604697 H 0.0 **** 0.06
27628 H 106.4021677968131 88.7411113159103 23.169771313138085 H 0.0 **** 0.06
27629 H 106.01061765336033 87.00988382720612 23.041682715670078 H 0.0 **** 0.06
27630 H 106.65564959406397 87.88246022351126 21.630591247769985 H 0.0 **** 0.06
27631 C 100.01713502294452 12.398201101846242 2.520760825189684 C 0.0 **** -0.24
27632 H 100.01037408543115 11.950764249754997 1.526590173719109 H 0.0 **** 0.06
27633 H 100.40790420048867 13.41455645300729 2.458422837992429 H 0.0 **** 0.06
27634 H 100.65012222020238 11.804817095475723 3.181820893186174 H 0.0 **** 0.06
27635 H 99.00101265048872 12.422356897028626 2.9151407854092772 H 0.0 **** 0.06
27636 C 82.44998505861287 80.92123115707408 83.50160720529595 C 0.0 **** -0.24
27637 H 83.29680041868579 80.39319115166079 83.06439197363187 H 0.0 **** 0.06
27638 H 82.13863507694964 80.41617860490481 84.41645246825652 H 0.0 **** 0.06
27639 H 81.6226583376004 80.93158215865473 82.79217288825276 H 0.0 **** 0.06
27640 H 82.74173161873094 81.94569588696025 83.73327869462005 H 0.0 **** 0.06
27641 C 54.111869130970454 63.280397635291806 98.14653197774085 C 0.0 **** -0.24
27642 H 54.87333399476152 63.49870156539164 97.39732480041991 H 0.0 **** 0.06
27643 H 54.064390970265336 64.09988302696772 98.86426818530055 H 0.0 **** 0.06
27644 H 54.3684916061094 62.35646521177347 98.66555945853419 H 0.0 **** 0.06
27645 H 53.14363669752129 63.166221199503354 97.65847621093735 H 0.0 **** 0.06
27646 C 26.568879949560138 67.69997471528788 41.114504466541206 C 0.0 **** -0.24
27647 H 27.570504802303006 67.46697734826594 41.47762379699208 H 0.0 **** 0.06
27648 H 26.55629967649941 67.64873632734367 40.02571932805901 H 0.0 **** 0.06
27649 H 26.292075981192685 68.70522953658627 41.43376934088249 H 0.0 **** 0.06
27650 H 25.858407470628602 66.98055769230865 41.52145987408784 H 0.0 **** 0.06
27651 C 94.02328411563778 46.90670705785537 39.74017059586694 C 0.0 **** -0.24
27652 H 93.30150375911225 46.282239346920186 40.2655607838895 H 0.0 **** 0.06
27653 H 93.51800423180188 47.45750973951471 38.947264977675545 H 0.0 **** 0.06
27654 H 94.80073939242959 46.27704214317241 39.30620038067832 H 0.0 **** 0.06
27655 H 94.47531201339882 47.60844558608208 40.44088345386355 H 0.0 **** 0.06
27656 C 28.39461920943495 5.515388116103608 106.8115820011315 C 0.0 **** -0.24
27657 H 29.278826440788947 4.918197309635644 107.03405090461378 H 0.0 **** 0.06
27658 H 27.702714187829173 4.928184315036177 106.20747285359128 H 0.0 **** 0.06
27659 H 28.689005158475396 6.409330089082218 106.26185355512206 H 0.0 **** 0.06
27660 H 27.90857328038649 5.805113222947455 107.7431921253213 H 0.0 **** 0.06
27661 C 69.75586678610011 102.27209491303148 78.1996398992303 C 0.0 **** -0.24
27662 H 69.8898743733003 101.47023226517314 77.47422214028279 H 0.0 **** 0.06
27663 H 69.39411087938282 101.85406394597032 79.13956943224383 H 0.0 **** 0.06
27664 H 69.0301461880751 102.99092612592972 77.81800781066482 H 0.0 **** 0.06
27665 H 70.70950122860853 102.77247313863109 78.36798683355897 H 0.0 **** 0.06
27666 C 55.065445499019184 4.592046720336413 47.050224592962024 C 0.0 **** -0.24
27667 H 55.856179699869145 5.074290237658147 46.475142563194396 H 0.0 **** 0.06
27668 H 54.74500643289839 3.6852927776862003 46.53687499093786 H 0.0 **** 0.06
27669 H 54.21955995292437 5.273714055832841 47.1468634035152 H 0.0 **** 0.06
27670 H 55.441490844145825 4.335795599162495 48.0402932431642 H 0.0 **** 0.06
27671 C 43.94734906442798 100.8252273868807 62.56886608200442 C 0.0 **** -0.24
27672 H 43.219347192598946 100.88355361909814 61.760582116758286 H 0.0 **** 0.06
27673 H 44.21592206049539 99.78263371663886 62.74052479783042 H 0.0 **** 0.06
27674 H 43.51623943307345 101.24434889731577 63.47811542043114 H 0.0 **** 0.06
27675 H 44.839958608272184 101.3897618585161 62.29566133929073 H 0.0 **** 0.06
27676 C 84.84996153169304 19.22524975146714 94.4514160520587 C 0.0 **** -0.24
27677 H 84.56467551351531 18.18523775584801 94.29149211245455 H 0.0 **** 0.06
27678 H 84.27021371207645 19.637648252908736 95.27723846135756 H 0.0 **** 0.06
27679 H 84.65334049203825 19.79889880971738 93.54644557318265 H 0.0 **** 0.06
27680 H 85.91224446234887 19.277250879847383 94.69135478085144 H 0.0 **** 0.06
27681 C 62.8115012858961 7.805012115258876 46.43126760699357 C 0.0 **** -0.24
27682 H 63.02780484403995 8.724743831921444 45.88832468298148 H 0.0 **** 0.06
27683 H 62.31473410725161 8.045151976966878 47.3709722925679 H 0.0 **** 0.06
27684 H 63.743189065744616 7.27730399543438 46.63664958264016 H 0.0 **** 0.06
27685 H 62.1610744180868 7.171565328426283 45.8271957434923 H 0.0 **** 0.06
27686 C 70.72340903304278 95.19732653510113 98.32786174853118 C 0.0 **** -0.24
27687 H 71.21121950249568 94.72231902701387 99.17863403786038 H 0.0 **** 0.06
27688 H 71.33873001618126 95.06532679362223 97.43637984367115 H 0.0 **** 0.06
27689 H 70.59874409469639 96.26197625027194 98.52846682780017 H 0.0 **** 0.06
27690 H 69.74753675678505 94.7401825010875 98.16654434609973 H 0.0 **** 0.06
27691 C 11.539128942510771 5.292169764795517 103.46532899351271 C 0.0 **** -0.24
27692 H 12.421694243090784 5.005950970823065 102.89463912411428 H 0.0 **** 0.06
27693 H 11.826259279570252 5.504873514167658 104.49574446968042 H 0.0 **** 0.06
27694 H 10.817251306007847 4.475859443947623 103.45105224605368 H 0.0 **** 0.06
27695 H 11.091866885471774 6.181533867135309 103.02199635553906 H 0.0 **** 0.06
27696 C 76.66555953567642 12.732616715216313 31.89282044017208 C 0.0 **** -0.24
27697 H 77.47243021512563 12.938931958274182 31.18921013560034 H 0.0 **** 0.06
27698 H 76.59651963334679 13.547508233780398 32.61341881023698 H 0.0 **** 0.06
27699 H 76.87258224269081 11.799584317225728 32.41770889288969 H 0.0 **** 0.06
27700 H 75.72399345406045 12.644879497842396 31.35089498971041 H 0.0 **** 0.06
27701 C 90.99155833804211 7.563059661522232 65.66025262245819 C 0.0 **** -0.24
27702 H 90.17744408173047 8.009001137628289 66.23159392469296 H 0.0 **** 0.06
27703 H 91.39433475188598 8.300483986434642 64.96616961758588 H 0.0 **** 0.06
27704 H 90.61642607939098 6.704988927791831 65.10214588564929 H 0.0 **** 0.06
27705 H 91.77841117488444 7.238409115382339 66.3417629923419 H 0.0 **** 0.06
27706 C 92.36149691926718 80.91217668263482 15.727506060853031 C 0.0 **** -0.24
27707 H 91.58554208655775 80.26538798298589 16.13627391261123 H 0.0 **** 0.06
27708 H 91.91823819778764 81.85677531128562 15.409987697461816 H 0.0 **** 0.06
27709 H 92.82692111742041 80.42405123399783 14.870894949842441 H 0.0 **** 0.06
27710 H 93.11518578250501 81.10227163760445 16.490644738902617 H 0.0 **** 0.06
27711 C 77.94172862054671 35.9574655074411 51.050043726899446 C 0.0 **** -0.24
27712 H 76.88855318953273 36.02565135645631 50.77897755041616 H 0.0 **** 0.06
27713 H 78.38340452652812 35.08317771519984 50.572418420047555 H 0.0 **** 0.06
27714 H 78.03324661128067 35.86612321423786 52.1326224895895 H 0.0 **** 0.06
27715 H 78.46105398936919 36.85554718395667 50.71656038201055 H 0.0 **** 0.06
27716 C 97.54944622310657 71.6840521593136 30.111772553206322 C 0.0 **** -0.24
27717 H 96.6259239737407 72.00665933497505 30.59252505908688 H 0.0 **** 0.06
27718 H 98.40279112115164 72.06658435973453 30.6716576335196 H 0.0 **** 0.06
27719 H 97.5811171626265 72.06698112065118 29.092114750655355 H 0.0 **** 0.06
27720 H 97.5870701876444 70.59436003736226 30.092400527913185 H 0.0 **** 0.06
27721 C 71.58654989286845 87.21488087432462 40.07601710263668 C 0.0 **** -0.24
27722 H 71.74350596779595 87.23533214738913 38.99773085714065 H 0.0 **** 0.06
27723 H 72.35757126733353 87.80900537774272 40.566798960549164 H 0.0 **** 0.06
27724 H 71.6378705230943 86.1862236311965 40.431262263239745 H 0.0 **** 0.06
27725 H 70.60474267158452 87.63091244767918 40.30732669892407 H 0.0 **** 0.06
27726 C 61.99932466397375 50.88598376226918 43.229341121862966 C 0.0 **** -0.24
27727 H 61.627125792765014 51.76793973922037 43.75096395411154 H 0.0 **** 0.06
27728 H 61.1970896161029 50.45508535016046 42.62855889012255 H 0.0 **** 0.06
27729 H 62.3443472911696 50.15197824128501 43.957018902965615 H 0.0 **** 0.06
27730 H 62.82685435297928 51.17131259712369 42.57993310681995 H 0.0 **** 0.06
27731 C 11.909098552555804 0.3640977112828745 70.95426930555993 C 0.0 **** -0.24
27732 H 12.714676790954712 1.0381484867000115 70.66358915983375 H 0.0 **** 0.06
27733 H 11.102218104262107 0.4261805679709134 70.22295648383488 H 0.0 **** 0.06
27734 H 11.532825301438919 0.6500601208190959 71.93584945546252 H 0.0 **** 0.06
27735 H 12.286434786993766 -0.6576668423673628 70.99376947180286 H 0.0 **** 0.06
27736 C 72.1705143815366 105.14292813474538 58.67985454370987 C 0.0 **** -0.24
27737 H 71.6682037569887 106.03075367881513 58.295049955536754 H 0.0 **** 0.06
27738 H 73.22748579378626 105.1785144367494 58.41358623226179 H 0.0 **** 0.06
27739 H 71.71593601586682 104.25160231338204 58.24770007390661 H 0.0 **** 0.06
27740 H 72.07015300041837 105.11145601859435 59.76543681746308 H 0.0 **** 0.06
27741 C 48.611341503432314 91.04037220481894 70.18337914566024 C 0.0 **** -0.24
27742 H 49.53909300326881 91.30329097645135 69.67498304894164 H 0.0 **** 0.06
27743 H 48.04960038360217 91.94754682793067 70.40646171586965 H 0.0 **** 0.06
27744 H 48.842177458358755 90.51823189903362 71.11252500184648 H 0.0 **** 0.06
27745 H 48.01633415242516 90.39223326572798 69.54115425933733 H 0.0 **** 0.06
27746 C 74.8575480584869 13.680755066452662 52.38493975756944 C 0.0 **** -0.24
27747 H 75.85610277483714 13.341495176740803 52.660613328415195 H 0.0 **** 0.06
27748 H 74.29520415393884 12.846854505393367 51.96431175672018 H 0.0 **** 0.06
27749 H 74.93680005717873 14.47613717215799 51.64408746537629 H 0.0 **** 0.06
27750 H 74.34456614181164 14.056282851352183 53.269078909835514 H 0.0 **** 0.06
27751 C 18.442165793930343 56.23716048853062 51.468171397491204 C 0.0 **** -0.24
27752 H 17.78470158522721 56.88943522224532 52.04298805941785 H 0.0 **** 0.06
27753 H 18.933028694089302 55.53302582024465 52.141284886549286 H 0.0 **** 0.06
27754 H 19.195059818439418 56.83870188351548 50.95922029157055 H 0.0 **** 0.06
27755 H 17.8563252812328 55.68794395238119 50.73133234959391 H 0.0 **** 0.06
27756 C 86.47707712985047 76.34637257785838 26.26309550661952 C 0.0 **** -0.24
27757 H 86.93363775135555 76.89747686557041 27.085681795639402 H 0.0 **** 0.06
27758 H 85.91846620743138 75.49902010241803 26.659751899634784 H 0.0 **** 0.06
27759 H 87.2561885411555 75.9876403921269 25.591451794978013 H 0.0 **** 0.06
27760 H 85.80053622735852 77.00481543385476 25.71681609793268 H 0.0 **** 0.06
27761 C 89.4842576660897 79.53945756655656 36.27498967824653 C 0.0 **** -0.24
27762 H 88.47756717246487 79.8948713573299 36.05755935646687 H 0.0 **** 0.06
27763 H 89.81128932230313 79.93912834441542 37.2353298841017 H 0.0 **** 0.06
27764 H 90.16498889617318 79.87356827747004 35.491778500932185 H 0.0 **** 0.06
27765 H 89.48463710413152 78.45060287586733 36.31617206452995 H 0.0 **** 0.06
27766 C 83.74181960802315 27.660812719896306 94.2152518257704 C 0.0 **** -0.24
27767 H 82.70267874086699 27.555170589934974 93.90195683209603 H 0.0 **** 0.06
27768 H 84.38099604137255 27.726232885084986 93.33470063438787 H 0.0 **** 0.06
27769 H 84.03057228701294 26.794566235900906 94.81198854103371 H 0.0 **** 0.06
27770 H 83.85118667036772 28.565687831205352 94.81211909376404 H 0.0 **** 0.06
27771 C 70.63544935451984 14.346519271782949 4.376390724764477 C 0.0 **** -0.24
27772 H 70.84134023437707 13.382018517286937 4.838671880606029 H 0.0 **** 0.06
27773 H 70.32756077803029 14.19532388769376 3.3412417801272767 H 0.0 **** 0.06
27774 H 71.53528719145923 14.961925539686327 4.402366601914537 H 0.0 **** 0.06
27775 H 69.83615826372237 14.8491383821625 4.922597250760134 H 0.0 **** 0.06
27776 C 50.814803550893146 67.63287879826811 36.35180458500764 C 0.0 **** -0.24
27777 H 51.30751357784871 67.01992312921007 37.106791937173114 H 0.0 **** 0.06
27778 H 51.17562824482684 67.35095353008523 35.36222920685583 H 0.0 **** 0.06
27779 H 51.03857513149114 68.68446882217728 36.53492331846962 H 0.0 **** 0.06
27780 H 49.737243929625635 67.47639046890629 36.404647626925794 H 0.0 **** 0.06
27781 C 75.16817699532265 78.59185981156712 101.03953060573889 C 0.0 **** -0.24
27782 H 76.04850842078164 78.0468500476021 101.379415321387 H 0.0 **** 0.06
27783 H 74.60759875031306 78.94961117074376 101.90293936488169 H 0.0 **** 0.06
27784 H 74.53860760429527 77.9303750470701 100.44566115347374 H 0.0 **** 0.06
27785 H 75.47964042405303 79.44014812474485 100.43038927814388 H 0.0 **** 0.06
27786 C 5.172790391947219 41.740278525910185 66.98037357126356 C 0.0 **** -0.24
27787 H 4.6952065342171565 41.72817652029141 66.00046341013905 H 0.0 **** 0.06
27788 H 5.493078899119732 40.73048043509735 67.24005774363371 H 0.0 **** 0.06
27789 H 4.463631065334308 42.09975544305664 67.72596937334288 H 0.0 **** 0.06
27790 H 6.038931107406908 42.40134554140113 66.95475407833663 H 0.0 **** 0.06
27791 C 65.09411360484863 77.38244985488882 95.54322101620741 C 0.0 **** -0.24
27792 H 65.94919868378061 77.36386757922338 96.21918620010806 H 0.0 **** 0.06
27793 H 65.35205790097947 77.94476491030593 94.6461016257799 H 0.0 **** 0.06
27794 H 64.24784706802343 77.85694689005544 96.03935727794781 H 0.0 **** 0.06
27795 H 64.82759178297482 76.36124257450308 95.26851649465908 H 0.0 **** 0.06
27796 C 65.07869929918306 76.37303889839501 91.69774307796844 C 0.0 **** -0.24
27797 H 64.85714314953742 76.66282774169963 90.67002129645887 H 0.0 **** 0.06
27798 H 64.25577280368616 75.77619668297831 92.09155531653899 H 0.0 **** 0.06
27799 H 65.20529142692297 77.26624439106644 92.30827892371389 H 0.0 **** 0.06
27800 H 65.99632392675299 75.78428812557837 91.71863143662056 H 0.0 **** 0.06
27801 C 96.54619531889776 43.662261640566136 81.83936092033068 C 0.0 **** -0.24
27802 H 96.35872112245764 44.4369403121904 81.09580050508654 H 0.0 **** 0.06
27803 H 95.72568073256403 42.945530331675585 81.83210137471801 H 0.0 **** 0.06
27804 H 96.62275325555643 44.11776187382811 82.82662285297928 H 0.0 **** 0.06
27805 H 97.47902610048769 43.15080720646011 81.60317926111392 H 0.0 **** 0.06
27806 C 64.02499065217393 13.978674253610265 104.62562481764004 C 0.0 **** -0.24
27807 H 65.10087368188044 14.100760330250921 104.51001211364114 H 0.0 **** 0.06
27808 H 63.81679693494334 13.4394428059054 105.5494551619214 H 0.0 **** 0.06
27809 H 63.630771223718796 13.415161925067963 103.77928348114585 H 0.0 **** 0.06
27810 H 63.54957624524701 14.959372181105522 104.66146430133651 H 0.0 **** 0.06
27811 C 8.22442692301263 88.34581960245566 104.42457929715135 C 0.0 **** -0.24
27812 H 8.121618907842674 89.04126663209568 103.59166354996846 H 0.0 **** 0.06
27813 H 8.479490105507836 87.35749589144055 104.04122338589862 H 0.0 **** 0.06
27814 H 7.283514660377335 88.29183250870717 104.97123290504884 H 0.0 **** 0.06
27815 H 9.014181592606661 88.69165901191764 105.09123989740074 H 0.0 **** 0.06
27816 C 31.8380784283018 7.61754421576066 86.15235970553465 C 0.0 **** -0.24
27817 H 32.36762338115031 7.568270548195272 87.10445109405723 H 0.0 **** 0.06
27818 H 31.167043396004516 8.476118825753048 86.15350043045997 H 0.0 **** 0.06
27819 H 31.259953378232723 6.704320282842673 86.01163594129044 H 0.0 **** 0.06
27820 H 32.55865811761154 7.71956797997035 85.34053164610765 H 0.0 **** 0.06
27821 C 4.061768167942191 76.85187025389178 67.01634593900621 C 0.0 **** -0.24
27822 H 3.711740693502435 77.3835953434764 67.90115603457701 H 0.0 **** 0.06
27823 H 3.5650328174715753 75.88320751094082 66.9538941297842 H 0.0 **** 0.06
27824 H 5.1397791769963845 76.7041779407129 67.08579362996505 H 0.0 **** 0.06
27825 H 3.8319765431348998 77.43680506531918 66.12620901374652 H 0.0 **** 0.06
27826 C 31.41895190472121 42.12057179500576 18.725937952801388 C 0.0 **** -0.24
27827 H 32.25780855349785 42.406894396947365 18.09117924300429 H 0.0 **** 0.06
27828 H 31.20375792365141 42.926434240384935 19.428155875195557 H 0.0 **** 0.06
27829 H 31.67259123222192 41.216025343027724 19.27625912280516 H 0.0 **** 0.06
27830 H 30.541735308834774 41.93586355325428 18.106058443379375 H 0.0 **** 0.06
27831 C 54.3749135476981 105.76080751013396 28.750437778437316 C 0.0 **** -0.24
27832 H 54.389421434766774 104.67290841691218 28.675445450200556 H 0.0 **** 0.06
27833 H 53.95065705354628 106.05140707101609 29.711844070896547 H 0.0 **** 0.06
27834 H 53.76629279522717 106.17227933453269 27.94556362725146 H 0.0 **** 0.06
27835 H 55.39238291956278 106.14298889367292 28.67059947159572 H 0.0 **** 0.06
27836 C 97.3321874338659 96.7763257040233 31.485903504209602 C 0.0 **** -0.24
27837 H 98.27716785736425 96.25628307397733 31.63971937745839 H 0.0 **** 0.06
27838 H 96.63045858530626 96.11152451870726 30.982528197811234 H 0.0 **** 0.06
27839 H 97.49965171721294 97.66103953848011 30.87137777968036 H 0.0 **** 0.06
27840 H 96.922176094527 97.07574874801948 32.45005142580203 H 0.0 **** 0.06
27841 C 39.84484706116177 15.370303410124052 102.3584253547376 C 0.0 **** -0.24
27842 H 40.44219983790771 16.264752506458308 102.53754045894074 H 0.0 **** 0.06
27843 H 40.49172237762559 14.492326376829055 102.37836110821452 H 0.0 **** 0.06
27844 H 39.362474559651275 15.444448020039488 101.38378795872754 H 0.0 **** 0.06
27845 H 39.08440026237122 15.279675129074235 103.13388836215103 H 0.0 **** 0.06
27846 C 9.113902167237697 82.00344173760429 10.424330280535258 C 0.0 **** -0.24
27847 H 8.867392764187855 82.5706955812474 9.527230585487118 H 0.0 **** 0.06
27848 H 9.04476290370954 80.93710679790235 10.209029861156736 H 0.0 **** 0.06
27849 H 8.415145329198069 82.26024771696726 11.220281448154111 H 0.0 **** 0.06
27850 H 10.12945959152205 82.2455542683472 10.739495956119526 H 0.0 **** 0.06
27851 C 106.61136945354627 29.645623276599935 74.2023769771632 C 0.0 **** -0.24
27852 H 107.46765192858052 29.77215253229923 73.540408438046 H 0.0 **** 0.06
27853 H 106.36262471659957 30.60217699209329 74.66191016377107 H 0.0 **** 0.06
27854 H 106.85553165912029 28.921110662980624 74.97883236272304 H 0.0 **** 0.06
27855 H 105.75836646516595 29.286567368705306 73.6266057886119 H 0.0 **** 0.06
27856 C 101.41286198622777 15.842168489469515 8.700548301279696 C 0.0 **** -0.24
27857 H 100.54527678629734 15.42887383768786 8.186685348249057 H 0.0 **** 0.06
27858 H 101.09453569726696 16.30533146318369 9.634347063506254 H 0.0 **** 0.06
27859 H 101.88782523620262 16.591406806766457 8.066038546411107 H 0.0 **** 0.06
27860 H 102.12310172810118 15.043821369739135 8.913736137211004 H 0.0 **** 0.06
27861 C 17.150349481316862 102.20535115327053 98.70519256624397 C 0.0 **** -0.24
27862 H 16.789758936248244 103.10558954607396 99.2038498120171 H 0.0 **** 0.06
27863 H 16.414003397662736 101.87666954681825 97.97094695914033 H 0.0 **** 0.06
27864 H 17.305060793335397 101.41855281751461 99.44295435582478 H 0.0 **** 0.06
27865 H 18.092936989995174 102.42277775046503 98.20271154512993 H 0.0 **** 0.06
27866 C 100.0364105990783 104.40198179370009 63.742409237416695 C 0.0 **** -0.24
27867 H 99.05022954777581 104.25552723876712 64.18353702771242 H 0.0 **** 0.06
27868 H 100.10832860740737 103.83299795540643 62.81545028357361 H 0.0 **** 0.06
27869 H 100.8015521717607 104.05952073643488 64.4401818182698 H 0.0 **** 0.06
27870 H 100.18584574311205 105.46078084238545 63.53077175747477 H 0.0 **** 0.06
27871 C 60.07201949040277 15.822348657607165 102.41151427857571 C 0.0 **** -0.24
27872 H 60.338004521159604 16.823185333400147 102.75025101394007 H 0.0 **** 0.06
27873 H 59.572989592820335 15.28610151584678 103.21939850619876 H 0.0 **** 0.06
27874 H 60.975332052673195 15.285182900880585 102.12239998949187 H 0.0 **** 0.06
27875 H 59.402884249696285 15.894312052607859 101.55459248122276 H 0.0 **** 0.06
27876 C 62.177311579715436 23.042371434546794 86.19664877029226 C 0.0 **** -0.24
27877 H 62.988243856649575 22.85995565866679 86.90129265361385 H 0.0 **** 0.06
27878 H 61.649763241512616 23.95364661782361 86.47955163156846 H 0.0 **** 0.06
27879 H 61.4843995298324 22.20096561486224 86.21489321565389 H 0.0 **** 0.06
27880 H 62.586526878122214 23.154844291764107 85.1930704897477 H 0.0 **** 0.06
27881 C 104.77836720531243 76.49927491056967 3.314463636357857 C 0.0 **** -0.24
27882 H 105.57605898262597 75.78607142712731 3.1043580116392775 H 0.0 **** 0.06
27883 H 104.62651959414524 76.566071495865 4.392012359510687 H 0.0 **** 0.06
27884 H 103.8569379225433 76.1643140155907 2.837584188354711 H 0.0 **** 0.06
27885 H 105.05486249499108 77.47860068831017 2.9249010026401265 H 0.0 **** 0.06
27886 C 55.94126022570681 42.95807241936916 81.96082249040296 C 0.0 **** -0.24
27887 H 56.62715561767629 43.31405081588673 81.19210173495361 H 0.0 **** 0.06
27888 H 55.36301255838837 43.79741698000339 82.34901074131375 H 0.0 **** 0.06
27889 H 56.50959444918217 42.501263538012324 82.77137945338245 H 0.0 **** 0.06
27890 H 55.26566414234475 42.21902670976357 81.53004402936062 H 0.0 **** 0.06
27891 C 8.724305523328404 7.120049023560355 80.79038237524355 C 0.0 **** -0.24
27892 H 8.677149309597766 6.925143529732011 79.71948424839803 H 0.0 **** 0.06
27893 H 9.1929732901454 8.08897844390762 80.96307290450864 H 0.0 **** 0.06
27894 H 9.31202041040444 6.340205624129965 81.27526093463098 H 0.0 **** 0.06
27895 H 7.71558976548463 7.124678190398953 81.20314355155347 H 0.0 **** 0.06
27896 C 3.3528253732403304 76.68215872512869 3.585943748358905 C 0.0 **** -0.24
27897 H 3.6736102170668223 76.83477412765663 4.617035590704589 H 0.0 **** 0.06
27898 H 4.15367569384885 76.19854993739347 3.0250657840146458 H 0.0 **** 0.06
27899 H 3.121506402656535 77.64594992810416 3.131728175829476 H 0.0 **** 0.06
27900 H 2.4655066720008394 76.0506490534811 3.5717774806286027 H 0.0 **** 0.06
27901 C 69.72226973763696 74.09270308131332 12.735278278958337 C 0.0 **** -0.24
27902 H 70.25820944255267 75.04127458856138 12.75871779730221 H 0.0 **** 0.06
27903 H 68.75821537622576 74.20776900672382 13.231641825630668 H 0.0 **** 0.06
27904 H 70.30833992919236 73.33218816350438 13.25040394983247 H 0.0 **** 0.06
27905 H 69.56496955023866 73.79037393070897 11.699379396319861 H 0.0 **** 0.06
27906 C 106.20308912523876 57.80312359395646 63.75659300192699 C 0.0 **** -0.24
27907 H 105.42957173418426 57.06469557048615 63.54802751769692 H 0.0 **** 0.06
27908 H 106.93882715399583 57.79633308065954 62.9521185342237 H 0.0 **** 0.06
27909 H 106.69410763138686 57.55907886876798 64.69897017427873 H 0.0 **** 0.06
27910 H 105.75131571922918 58.79286426000843 63.82853009783538 H 0.0 **** 0.06
27911 C 75.0768229048715 71.30110217898294 64.36170550509354 C 0.0 **** -0.24
27912 H 74.46752450126516 70.49908479680607 63.94445701441907 H 0.0 **** 0.06
27913 H 74.69869953068556 72.26181634312314 64.01381376303986 H 0.0 **** 0.06
27914 H 76.11049956671837 71.1773515686711 64.0377254394058 H 0.0 **** 0.06
27915 H 75.03073229104439 71.26287984142192 65.44971211378503 H 0.0 **** 0.06
27916 C 15.046068705948386 41.14597045139624 104.44368728769292 C 0.0 **** -0.24
27917 H 14.570135079480078 41.204823203463036 105.42322355905011 H 0.0 **** 0.06
27918 H 14.283824370208045 41.20167165476016 103.66642757388134 H 0.0 **** 0.06
27919 H 15.584159252563214 40.20262484067388 104.35831594311861 H 0.0 **** 0.06
27920 H 15.744449052090879 41.97528328864837 104.3291934431476 H 0.0 **** 0.06
27921 C 25.444562828170035 101.5170115028483 106.77548200682764 C 0.0 **** -0.24
27922 H 24.92948411969391 101.13678318456473 107.65784988557499 H 0.0 **** 0.06
27923 H 26.396421235828228 100.99878406681586 106.65928560727099 H 0.0 **** 0.06
27924 H 25.623650308600247 102.58603599209367 106.89337201651443 H 0.0 **** 0.06
27925 H 24.827332555155778 101.34655365279065 105.89345274756568 H 0.0 **** 0.06
27926 C 10.274739446068665 20.15447189703616 8.095728326207341 C 0.0 **** -0.24
27927 H 9.18923896499453 20.185700631729418 8.010621883665396 H 0.0 **** 0.06
27928 H 10.635358373093766 19.17252886530987 7.7879416791864795 H 0.0 **** 0.06
27929 H 10.564052642581416 20.338915875389148 9.130615773510856 H 0.0 **** 0.06
27930 H 10.712222758034272 20.919600691046753 7.453907465447228 H 0.0 **** 0.06
27931 C 39.83546399549019 49.400644763891854 82.5543497658968 C 0.0 **** -0.24
27932 H 40.42722464765376 49.34848615058498 81.6404474091735 H 0.0 **** 0.06
27933 H 38.870589873594014 49.85931936423849 82.33675087962655 H 0.0 **** 0.06
27934 H 40.36368494781621 49.99885673926961 83.29611908245852 H 0.0 **** 0.06
27935 H 39.680094578871405 48.39375444053224 82.94357590980337 H 0.0 **** 0.06
27936 C 50.215472618449496 54.37864027831685 90.83307592619539 C 0.0 **** -0.24
27937 H 49.936021072915594 53.801225127942985 91.7139228211787 H 0.0 **** 0.06
27938 H 49.572155566512095 54.10215173736566 89.99799452628724 H 0.0 **** 0.06
27939 H 51.25443939906927 54.17144293576257 90.57750797312585 H 0.0 **** 0.06
27940 H 50.09914273612543 55.441481851911504 91.04531838239868 H 0.0 **** 0.06
27941 C 89.13778655690055 88.79597714027659 9.537240708078542 C 0.0 **** -0.24
27942 H 89.42504592903009 87.85078568790078 10.000174802652857 H 0.0 **** 0.06
27943 H 88.68365195623885 89.44410969226226 10.287175835333068 H 0.0 **** 0.06
27944 H 88.42198314248361 88.60555013563129 8.738855061366825 H 0.0 **** 0.06
27945 H 90.02283683066592 89.28053972300478 9.124439493438729 H 0.0 **** 0.06
27946 C 44.504832967954655 83.55920850880216 34.703785269461605 C 0.0 **** -0.24
27947 H 45.52288493835857 83.47847626010065 34.32075750485515 H 0.0 **** 0.06
27948 H 43.79777275112542 83.408522579404 33.88690804991083 H 0.0 **** 0.06
27949 H 44.356892411268404 84.54941841645365 35.13425317700822 H 0.0 **** 0.06
27950 H 44.34355901782703 82.80111100910227 35.47000363770752 H 0.0 **** 0.06
27951 C 75.81218255075231 91.09682319074676 53.26549240372315 C 0.0 **** -0.24
27952 H 76.7026026733729 90.7725408161547 53.80352551206664 H 0.0 **** 0.06
27953 H 74.92339881344469 90.81047824322565 53.828309224520915 H 0.0 **** 0.06
27954 H 75.78964768075059 90.62252037258673 52.283863773363436 H 0.0 **** 0.06
27955 H 75.83530508567412 92.17991794594315 53.14544323018311 H 0.0 **** 0.06
27956 C 87.25246923927482 76.04037159221565 42.14939159204157 C 0.0 **** -0.24
27957 H 87.09681849174316 76.97071361800366 42.69535794187516 H 0.0 **** 0.06
27958 H 88.31396641409022 75.91941678504512 41.931172820481095 H 0.0 **** 0.06
27959 H 86.69013327146322 76.06800827210651 41.21618787950712 H 0.0 **** 0.06
27960 H 86.90820396433512 75.20241003788507 42.756732211752364 H 0.0 **** 0.06
27961 C 82.52133197383023 24.22032081106279 88.42704684575244 C 0.0 **** -0.24
27962 H 82.98179154891483 23.237500817159912 88.33085170269993 H 0.0 **** 0.06
27963 H 83.17585426027154 24.972098151853828 87.9855322569017 H 0.0 **** 0.06
27964 H 82.3661003032899 24.447835176022906 89.48184733214754 H 0.0 **** 0.06
27965 H 81.56219607767162 24.224062694436157 87.90919644331933 H 0.0 **** 0.06
27966 C 36.60229347167915 73.92733644610149 15.363124866519257 C 0.0 **** -0.24
27967 H 36.49400732516777 74.35229510195353 16.361205011561495 H 0.0 **** 0.06
27968 H 37.47651719149068 74.35993919009209 14.87724686469096 H 0.0 **** 0.06
27969 H 35.712329801204476 74.14800457764707 14.77590869609267 H 0.0 **** 0.06
27970 H 36.726818779582594 72.84679230767252 15.441798710367394 H 0.0 **** 0.06
27971 C 97.86716364168078 28.724692134201263 59.07523687762179 C 0.0 **** -0.24
27972 H 98.09780493009029 27.92856443811641 59.78328843390247 H 0.0 **** 0.06
27973 H 97.87055168062383 28.320125938756433 58.06212853557048 H 0.0 **** 0.06
27974 H 98.61842425242963 29.510821176790074 59.15543889514345 H 0.0 **** 0.06
27975 H 96.88373153395949 29.1368990693409 59.2986812504256 H 0.0 **** 0.06
27976 C 104.52082873685617 83.6959303169184 84.3975106810523 C 0.0 **** -0.24
27977 H 104.97046340123148 84.59260227492317 83.97130678198502 H 0.0 **** 0.06
27978 H 105.30576635264873 83.03087463078293 84.75592039743697 H 0.0 **** 0.06
27979 H 103.9327510369223 83.18634747873062 83.63327660407074 H 0.0 **** 0.06
27980 H 103.87238807615194 83.97565052003921 85.22847221809357 H 0.0 **** 0.06
27981 C 53.40202643668417 52.9777901971253 69.96988678673603 C 0.0 **** -0.24
27982 H 52.42752897948145 52.53920145940248 70.18375430610729 H 0.0 **** 0.06
27983 H 53.28351425425424 54.04221168610803 69.7636574697305 H 0.0 **** 0.06
27984 H 53.83932876979816 52.485913830158324 69.10181826834537 H 0.0 **** 0.06
27985 H 54.05654110195448 52.84530977858222 70.83094901743033 H 0.0 **** 0.06
27986 C 25.59749819115143 94.93293223269961 7.231463437933257 C 0.0 **** -0.24
27987 H 26.654426744671582 95.18968900496391 7.166327723149578 H 0.0 **** 0.06
27988 H 25.43872132623551 93.93967730704193 6.809797296817578 H 0.0 **** 0.06
27989 H 25.010869145862102 95.66346088991833 6.674402442704803 H 0.0 **** 0.06
27990 H 25.286926098602578 94.93734273057386 8.27695915581242 H 0.0 **** 0.06
27991 C 15.318711442501396 5.706469302241032 11.649680121386337 C 0.0 **** -0.24
27992 H 14.950593341219943 6.7131644816575715 11.451787254518942 H 0.0 **** 0.06
27993 H 16.111044090555282 5.7510367579976105 12.397655706937387 H 0.0 **** 0.06
27994 H 15.712795429100595 5.276284377810271 10.729165357010471 H 0.0 **** 0.06
27995 H 14.502689458821024 5.087300968613846 12.020526913950134 H 0.0 **** 0.06
27996 C 90.3476836453521 83.25807348254958 46.52078445068771 C 0.0 **** -0.24
27997 H 91.24158227557874 83.7728650979594 46.16973673044893 H 0.0 **** 0.06
27998 H 90.36142200459 82.22604489876468 46.16984431032368 H 0.0 **** 0.06
27999 H 89.46184506359087 83.76225839698319 46.134767251505274 H 0.0 **** 0.06
28000 H 90.32636284026532 83.27033865813206 47.611059531282756 H 0.0 **** 0.06
28001 C 85.06759556043926 62.28246798689261 31.481854251138685 C 0.0 **** -0.24
28002 H 84.33262347673556 61.58336700984759 31.878199392710656 H 0.0 **** 0.06
28003 H 85.25365859591807 63.06786329938808 32.21498691046705 H 0.0 **** 0.06
28004 H 84.6881519716791 62.72738091067893 30.56220717708638 H 0.0 **** 0.06
28005 H 85.99689409273259 61.753496627778844 31.272349574888693 H 0.0 **** 0.06
28006 C 61.227130492659754 69.40226918521373 33.36215820274987 C 0.0 **** -0.24
28007 H 60.97970051430703 70.20435980500372 32.666488187364536 H 0.0 **** 0.06
28008 H 61.007670465233815 68.44021064318271 32.89829895539643 H 0.0 **** 0.06
28009 H 60.634058364843085 69.5123432590185 34.269390699069675 H 0.0 **** 0.06
28010 H 62.28692928588575 69.4522989507702 33.61201465715013 H 0.0 **** 0.06
28011 C 88.83101676758551 14.40279130881136 19.114589227312095 C 0.0 **** -0.24
28012 H 88.37992590003117 15.223844046823714 18.55840572805741 H 0.0 **** 0.06
28013 H 89.3427992526845 14.796660387993938 19.993027939797628 H 0.0 **** 0.06
28014 H 89.54788881343666 13.884383970205022 18.47795039571588 H 0.0 **** 0.06
28015 H 88.05345310418951 13.706276830222905 19.42897284567701 H 0.0 **** 0.06
28016 C 76.09967642690641 80.12900204796651 65.1714172847579 C 0.0 **** -0.24
28017 H 76.45907981722168 79.29854534106084 64.56433530110263 H 0.0 **** 0.06
28018 H 76.45797359137879 81.0685481440538 64.75061924914834 H 0.0 **** 0.06
28019 H 76.47259081465465 80.02183829979288 66.19040282616234 H 0.0 **** 0.06
28020 H 75.01010287725576 80.12685809907288 65.1812433927065 H 0.0 **** 0.06
28021 C 101.84361444640518 91.99421842226424 69.3934737607886 C 0.0 **** -0.24
28022 H 100.93610061186746 92.211649100218 69.95572743689716 H 0.0 **** 0.06
28023 H 102.49761915408607 91.35857153262768 69.99134133183718 H 0.0 **** 0.06
28024 H 102.35727551305638 92.92649611166148 69.15839221611597 H 0.0 **** 0.06
28025 H 101.58299245613159 91.48013656554058 68.46755162797187 H 0.0 **** 0.06
28026 C 9.21450930831935 61.69684769195277 59.66423402371852 C 0.0 **** -0.24
28027 H 9.675931783060662 60.97655018343637 58.98901592127954 H 0.0 **** 0.06
28028 H 9.992875615156095 62.26868668958146 60.17076321475461 H 0.0 **** 0.06
28029 H 8.61281002575629 61.169162489959234 60.40319676783087 H 0.0 **** 0.06
28030 H 8.578744824429293 62.373445890069945 59.09333727518258 H 0.0 **** 0.06
28031 C 99.5759771333467 29.345740023247046 3.8004103803554585 C 0.0 **** -0.24
28032 H 98.54305495741426 29.590266532526975 3.555683586985026 H 0.0 **** 0.06
28033 H 100.23453076628151 30.12485077508869 3.4155191093485087 H 0.0 **** 0.06
28034 H 99.8404250237332 28.390232631649333 3.349055112083704 H 0.0 **** 0.06
28035 H 99.68647189877493 29.279386020737654 4.882970208232848 H 0.0 **** 0.06
28036 C 36.359158078348514 105.80087158366356 73.40514294921097 C 0.0 **** -0.24
28037 H 37.19145547773604 105.98641284199515 74.08377920581802 H 0.0 **** 0.06
28038 H 36.114398274095095 104.73797801099741 73.41401276086074 H 0.0 **** 0.06
28039 H 36.63822149419414 106.10118200492298 72.39590714930677 H 0.0 **** 0.06
28040 H 35.49145533194422 106.3762590283744 73.72911976654768 H 0.0 **** 0.06
28041 C 7.665985575534762 90.02894663578151 34.43470327443376 C 0.0 **** -0.24
28042 H 8.426309530845856 90.57168541293869 34.99524386437713 H 0.0 **** 0.06
28043 H 7.929275291307761 90.02432875236647 33.376418830849445 H 0.0 **** 0.06
28044 H 6.70042399800127 90.51715526424806 34.567130184652854 H 0.0 **** 0.06
28045 H 7.6082459770594255 89.00369724444447 34.79916245551985 H 0.0 **** 0.06
28046 C 87.16286646468308 99.31745737390398 58.40173969848391 C 0.0 **** -0.24
28047 H 87.98659895907237 99.98325525576595 58.658807114548665 H 0.0 **** 0.06
28048 H 86.26633597381075 99.9067521303576 58.21076993989806 H 0.0 **** 0.06
28049 H 86.97907234412796 98.63150861869997 59.22860530401934 H 0.0 **** 0.06
28050 H 87.42221399117003 98.74867629449122 57.50825064023462 H 0.0 **** 0.06
28051 C 31.639129418538545 105.08258351513354 44.121812133988996 C 0.0 **** -0.24
28052 H 31.806187680509396 105.69619067805554 45.00739528681314 H 0.0 **** 0.06
28053 H 32.51626676425471 104.45949662568452 43.94159114857379 H 0.0 **** 0.06
28054 H 31.467274541670207 105.72635042979898 43.26008787638834 H 0.0 **** 0.06
28055 H 30.7686524875825 104.44644505820852 44.28083875014717 H 0.0 **** 0.06
28056 C 79.99957673811738 5.278743465378739 33.43934643456606 C 0.0 **** -0.24
28057 H 79.9293817769877 6.366875752120222 33.4242285238862 H 0.0 **** 0.06
28058 H 79.03641934698894 4.8482528191472625 33.165385947973675 H 0.0 **** 0.06
28059 H 80.27476872529272 4.947650720433785 34.44070035295641 H 0.0 **** 0.06
28060 H 80.75922705231957 4.955515715979516 32.72793733392342 H 0.0 **** 0.06
28061 C 72.17812829487075 51.90562880034755 101.12105113479792 C 0.0 **** -0.24
28062 H 72.88035002087457 52.352151229129824 101.82523938243523 H 0.0 **** 0.06
28063 H 71.50558243518265 51.233842390605375 101.65537953616146 H 0.0 **** 0.06
28064 H 72.72857295128496 51.34523112641329 100.365889034447 H 0.0 **** 0.06
28065 H 71.59810769746402 52.6925392474887 100.63889269274785 H 0.0 **** 0.06
28066 C 41.583045851705606 45.95802944284248 63.84642961809587 C 0.0 **** -0.24
28067 H 41.53609943691964 45.54492895057735 64.85381867186027 H 0.0 **** 0.06
28068 H 42.20985647733312 45.32107248426617 63.22243444667805 H 0.0 **** 0.06
28069 H 42.00812719259267 46.96110855145393 63.88524810628013 H 0.0 **** 0.06
28070 H 40.57903013952634 46.004937833392795 63.42648237040126 H 0.0 **** 0.06
28071 C 75.82505010247635 37.98583842538409 0.5980156114027011 C 0.0 **** -0.24
28072 H 76.63612018314265 38.71418219109586 0.5946390786826612 H 0.0 **** 0.06
28073 H 76.2398581717292 36.98039473154904 0.5221935799649202 H 0.0 **** 0.06
28074 H 75.16613465430291 38.173290136911874 -0.249934272491231 H 0.0 **** 0.06
28075 H 75.25905115944877 38.076908576736116 1.524941778493229 H 0.0 **** 0.06
28076 C 14.015746406150939 26.34792343285119 23.196869836789684 C 0.0 **** -0.24
28077 H 13.34637291975902 27.088328686378134 22.75735309657994 H 0.0 **** 0.06
28078 H 14.778417921676038 26.071521326361733 22.46825486231361 H 0.0 **** 0.06
28079 H 13.444006226930668 25.464434689899008 23.479062091013528 H 0.0 **** 0.06
28080 H 14.492948265735578 26.7705104582827 24.081890947102497 H 0.0 **** 0.06
28081 C 19.376848886059996 81.6701341667029 53.82287872419093 C 0.0 **** -0.24
28082 H 20.445855424973836 81.88016978139842 53.78014939205293 H 0.0 **** 0.06
28083 H 18.861614926121522 82.25537551643401 53.06132358576458 H 0.0 **** 0.06
28084 H 18.99341760268446 81.93752711806877 54.80790978973805 H 0.0 **** 0.06
28085 H 19.207209480150908 80.60868791556979 53.642232567045056 H 0.0 **** 0.06
28086 C 44.68878347236415 18.948882538913484 2.002098264429179 C 0.0 **** -0.24
28087 H 44.58597568001525 17.90225778404093 2.286827679408219 H 0.0 **** 0.06
28088 H 43.701360916790804 19.40465115679792 1.929136845678073 H 0.0 **** 0.06
28089 H 45.1922915190776 19.01515037706681 1.0366408515554184 H 0.0 **** 0.06
28090 H 45.27680791351594 19.47393741611825 2.7547451484200565 H 0.0 **** 0.06
28091 C 102.45228948874257 76.42246750680692 50.44753378377165 C 0.0 **** -0.24
28092 H 103.06685635819932 76.0618681730304 49.62260930459654 H 0.0 **** 0.06
28093 H 102.90501063722675 77.3176800465157 50.872967378289204 H 0.0 **** 0.06
28094 H 102.38371456761065 75.64992284838902 51.21298979700639 H 0.0 **** 0.06
28095 H 101.45364050282382 76.65789406459504 50.07963944477914 H 0.0 **** 0.06
28096 C 46.57941982273013 30.197801599581084 94.1011183096928 C 0.0 **** -0.24
28097 H 47.36251765482075 29.570428810566426 93.6739018144387 H 0.0 **** 0.06
28098 H 47.02952887460208 31.082183647525 94.55277079821371 H 0.0 **** 0.06
28099 H 46.03879567091053 29.635780375093475 94.86161900222494 H 0.0 **** 0.06
28100 H 45.88921458792532 30.5023138837644 93.31473310971825 H 0.0 **** 0.06
28101 C 101.18993803509693 1.1392325693655598 65.89093300850189 C 0.0 **** -0.24
28102 H 100.56957418406745 0.2681660807141908 65.68162094360524 H 0.0 **** 0.06
28103 H 100.69347096238366 2.0362884649515367 65.52236439363323 H 0.0 **** 0.06
28104 H 102.15341165877518 1.0264139176427332 65.39279418861136 H 0.0 **** 0.06
28105 H 101.34464386572606 1.2248424865704823 66.96611890768108 H 0.0 **** 0.06
28106 C 2.341351434947157 7.8469612839871274 81.3095132409685 C 0.0 **** -0.24
28107 H 2.503344442615827 8.733826388769415 80.69679775825051 H 0.0 **** 0.06
28108 H 3.0252193801627243 7.058790233390823 80.99447080329305 H 0.0 **** 0.06
28109 H 1.3126474121648783 7.505477002648917 81.18902969739862 H 0.0 **** 0.06
28110 H 2.523691251606749 8.089524458763293 82.35611296148642 H 0.0 **** 0.06
28111 C 39.116451451278714 91.71993764682665 91.91502229227797 C 0.0 **** -0.24
28112 H 39.169152815765955 92.75963177220083 91.59133506964618 H 0.0 **** 0.06
28113 H 38.42548483767131 91.17493819566499 91.27227395852663 H 0.0 **** 0.06
28114 H 38.76587310581354 91.67744573891835 92.94572007543178 H 0.0 **** 0.06
28115 H 40.10694143896063 91.26921063097583 91.84899600236861 H 0.0 **** 0.06
28116 C 42.98581940078699 70.38623819050186 45.37761166670569 C 0.0 **** -0.24
28117 H 42.786477769964876 71.40839956024276 45.0564018623784 H 0.0 **** 0.06
28118 H 43.97682837451689 70.08436662651842 45.03760797038861 H 0.0 **** 0.06
28119 H 42.236350127203 69.71936097083007 44.95291268028233 H 0.0 **** 0.06
28120 H 42.94386295155862 70.33299698482296 46.465955722150824 H 0.0 **** 0.06
28121 C 82.83676354739714 65.34337474264169 48.08802584094898 C 0.0 **** -0.24
28122 H 82.7236784502312 66.1165634708131 47.32838405791114 H 0.0 **** 0.06
28123 H 82.38090607486635 64.4183122768519 47.734070843913834 H 0.0 **** 0.06
28124 H 82.34458054273142 65.66271485059849 49.00686016222834 H 0.0 **** 0.06
28125 H 83.89567578698288 65.17595805423451 48.281739988167075 H 0.0 **** 0.06
28126 C 11.377039466368558 50.14251907014245 54.48891763635254 C 0.0 **** -0.24
28127 H 10.57159577337066 50.85935253442723 54.64760895298364 H 0.0 **** 0.06
28128 H 11.407572850791382 49.43938630856276 55.322692096295405 H 0.0 **** 0.06
28129 H 12.327482643022051 50.67290580810212 54.4264964543276 H 0.0 **** 0.06
28130 H 11.202398086461272 49.59892335854086 53.561100984274944 H 0.0 **** 0.06
28131 C 106.85170696741378 4.1175387311166105 73.54024800069573 C 0.0 **** -0.24
28132 H 106.3824748705403 3.3388945355645774 74.14114328058687 H 0.0 **** 0.06
28133 H 106.47251344428628 5.092378787618657 73.84748709599114 H 0.0 **** 0.06
28134 H 106.6226673596494 3.9526974591329918 72.48724803110025 H 0.0 **** 0.06
28135 H 107.9324366902407 4.08634257505372 73.68567793324394 H 0.0 **** 0.06
28136 C 77.08232404662837 68.36943423625064 66.93970286923897 C 0.0 **** -0.24
28137 H 77.12864964769406 67.5308496323899 66.2447506992741 H 0.0 **** 0.06
28138 H 77.29096630424931 69.29584845740158 66.40354071181886 H 0.0 **** 0.06
28139 H 77.82275195265473 68.22988378470001 67.72650642366247 H 0.0 **** 0.06
28140 H 76.08689295567953 68.42067475977802 67.38122645328644 H 0.0 **** 0.06
28141 C 40.86361948107162 71.75430819506737 38.74963438864896 C 0.0 **** -0.24
28142 H 39.8319041174189 71.4473669343573 38.57449377548447 H 0.0 **** 0.06
28143 H 40.95448496745058 72.16303130218628 39.75645345555783 H 0.0 **** 0.06
28144 H 41.14503617060859 72.51465142683512 38.02171991469437 H 0.0 **** 0.06
28145 H 41.52136682399288 70.89157122232444 38.646755675197596 H 0.0 **** 0.06
28146 C 19.832676784189015 27.39468949404348 97.51033182196835 C 0.0 **** -0.24
28147 H 20.36820668289653 27.26876415542169 98.45165762820055 H 0.0 **** 0.06
28148 H 20.523884334010432 27.74428863969239 96.74414958647986 H 0.0 **** 0.06
28149 H 19.034816865200423 28.124887330625242 97.64205247766179 H 0.0 **** 0.06
28150 H 19.404720566303155 26.43939957344599 97.20573476195726 H 0.0 **** 0.06
28151 C 55.128657596607724 28.42426258868454 23.231743642352754 C 0.0 **** -0.24
28152 H 54.85532775478222 29.45813662376122 23.441569672083517 H 0.0 **** 0.06
28153 H 55.508464238105375 27.95785089013134 24.140483278711926 H 0.0 **** 0.06
28154 H 55.89990177982992 28.401633164275722 22.461104247122037 H 0.0 **** 0.06
28155 H 54.250837514467065 27.880267796696216 22.88328092015294 H 0.0 **** 0.06
28156 C 17.927131707881443 100.15478085137477 61.091779341526234 C 0.0 **** -0.24
28157 H 17.343682706767765 99.68994725274814 60.296970747827686 H 0.0 **** 0.06
28158 H 18.743227385823957 100.73074268584935 60.65334621911106 H 0.0 **** 0.06
28159 H 18.335764026074628 99.38226238122769 61.74286653200858 H 0.0 **** 0.06
28160 H 17.285197995546866 100.81814510280287 61.672639696417974 H 0.0 **** 0.06
28161 C 30.1576258331919 103.13136444482623 95.96012586441202 C 0.0 **** -0.24
28162 H 30.555601524178087 103.30053445258014 96.96072596924407 H 0.0 **** 0.06
28163 H 29.08690733075437 102.93584694526459 96.02437175886894 H 0.0 **** 0.06
28164 H 30.658166067721538 102.27462981745464 95.51013263146018 H 0.0 **** 0.06
28165 H 30.329639546495287 104.01537434513412 95.34672350865637 H 0.0 **** 0.06
28166 C 60.05968194312209 14.372675756400099 78.77926535336908 C 0.0 **** -0.24
28167 H 60.6252394435719 15.246043647868248 79.10457899183172 H 0.0 **** 0.06
28168 H 59.488905364034395 13.97656174673665 79.6199249486638 H 0.0 **** 0.06
28169 H 60.747395637957084 13.609612839651732 78.41473337107757 H 0.0 **** 0.06
28170 H 59.377655568358705 14.659910163830375 77.979482201259 H 0.0 **** 0.06
28171 C 94.00103087498219 67.5285701959443 13.067456303519762 C 0.0 **** -0.24
28172 H 93.58099980157662 68.04948021064439 13.926789926100014 H 0.0 **** 0.06
28173 H 94.55146966809343 66.65146603700589 13.408026626621677 H 0.0 **** 0.06
28174 H 94.6751511580508 68.1962674873813 12.530955718535068 H 0.0 **** 0.06
28175 H 93.19502801596377 67.2164696079708 12.402190648574418 H 0.0 **** 0.06
28176 C 100.11416938085806 71.01357846170231 8.00192268242961 C 0.0 **** -0.24
28177 H 100.2557711583535 71.39030093034631 6.988511677176255 H 0.0 **** 0.06
28178 H 101.07795461577076 70.72056163930642 8.41862027385352 H 0.0 **** 0.06
28179 H 99.45002109021425 70.1501255524376 7.978646373251518 H 0.0 **** 0.06
28180 H 99.67306123900167 71.79488419926716 8.621167929705882 H 0.0 **** 0.06
28181 C 78.78640349180685 58.58452007613878 58.11370121741385 C 0.0 **** -0.24
28182 H 77.71164494586705 58.687545334090395 57.96385938528539 H 0.0 **** 0.06
28183 H 79.17300518764429 59.48174519599927 58.5974552233493 H 0.0 **** 0.06
28184 H 79.27670081745745 58.4516839611619 57.14936787232568 H 0.0 **** 0.06
28185 H 78.98360189762909 57.717840535414815 58.74397023211475 H 0.0 **** 0.06
28186 C 32.60435539301102 10.490395197335744 17.160169628546612 C 0.0 **** -0.24
28187 H 33.102152390007774 10.610893377392443 16.198674446327004 H 0.0 **** 0.06
28188 H 33.35093908524405 10.359666881025078 17.942718379645726 H 0.0 **** 0.06
28189 H 31.95603854035548 9.614481399748058 17.125255229739935 H 0.0 **** 0.06
28190 H 32.00631969214149 11.376763437680609 17.372594591459915 H 0.0 **** 0.06
28191 C 7.603283674209763 52.268106648591186 53.412313567442936 C 0.0 **** -0.24
28192 H 7.806275606918547 52.82456539062003 54.327736794940904 H 0.0 **** 0.06
28193 H 8.46385543057255 51.64361823906559 53.167962823827395 H 0.0 **** 0.06
28194 H 7.416841219476936 52.96584138506067 52.59614622037344 H 0.0 **** 0.06
28195 H 6.726277512365499 51.63667653279849 53.55730302695525 H 0.0 **** 0.06
28196 C 87.49450277483476 35.03581717699648 99.1004950786564 C 0.0 **** -0.24
28197 H 88.52358999231194 35.2254428375598 99.40528238878201 H 0.0 **** 0.06
28198 H 86.82468064894138 35.23883440620179 99.93621515196743 H 0.0 **** 0.06
28199 H 87.39280498982407 33.99339819284994 98.79844221160153 H 0.0 **** 0.06
28200 H 87.23859994074377 35.68309728603929 98.26203883177583 H 0.0 **** 0.06
28201 C 6.305438305304165 92.53952154690863 61.21114712664996 C 0.0 **** -0.24
28202 H 5.6845663268725275 93.32399566292429 60.77626881910004 H 0.0 **** 0.06
28203 H 5.822254663714887 91.57287547257597 61.06758647688014 H 0.0 **** 0.06
28204 H 6.434490721438976 92.7279856346995 62.276294254857476 H 0.0 **** 0.06
28205 H 7.279151426649193 92.53594089894133 60.721279140895604 H 0.0 **** 0.06
28206 C 59.857627193013 60.53229654754078 61.576405696082986 C 0.0 **** -0.24
28207 H 58.981282848859394 60.254726449859824 62.162012332005816 H 0.0 **** 0.06
28208 H 60.31994244578124 59.63338182126801 61.16744399610246 H 0.0 **** 0.06
28209 H 60.57280272331445 61.04945759254262 62.21566628290367 H 0.0 **** 0.06
28210 H 59.55621477549835 61.18923088154517 60.7609693049817 H 0.0 **** 0.06
28211 C 44.68432269355338 29.159625905004248 44.86488202603741 C 0.0 **** -0.24
28212 H 45.46445554472395 28.57119415636302 44.38024546736054 H 0.0 **** 0.06
28213 H 44.616085788680564 30.136040250379523 44.38518059740545 H 0.0 **** 0.06
28214 H 44.92967572886386 29.288454577835353 45.91895496347536 H 0.0 **** 0.06
28215 H 43.73038398987904 28.64147240209894 44.77403302279774 H 0.0 **** 0.06
28216 C 81.51432772959765 50.19825631888739 16.83753068511342 C 0.0 **** -0.24
28217 H 81.03475156055293 50.61649653235071 17.722346211670242 H 0.0 **** 0.06
28218 H 80.80841259332695 50.202740140860016 16.006136380482133 H 0.0 **** 0.06
28219 H 81.82784923753655 49.17476713296983 17.043010258590357 H 0.0 **** 0.06
28220 H 82.38571365320848 50.80018601733937 16.578079424865678 H 0.0 **** 0.06
28221 C 72.61425023231135 60.11350511897257 0.6294376367391692 C 0.0 **** -0.24
28222 H 71.77840688036429 59.876473290180414 1.2879378462971545 H 0.0 **** 0.06
28223 H 73.51860649631527 59.632013094772425 1.0026372156891625 H 0.0 **** 0.06
28224 H 72.76089481129935 61.19334501211131 0.6047620838363628 H 0.0 **** 0.06
28225 H 72.39846557391246 59.752459967871935 -0.3754573946780795 H 0.0 **** 0.06
28226 C 0.10272681574265619 63.91334639123346 61.2254863325758 C 0.0 **** -0.24
28227 H 0.41695633183137204 64.11264633579464 62.250434668336766 H 0.0 **** 0.06
28228 H -0.9191630255213568 64.26732875247734 61.08377388240251 H 0.0 **** 0.06
28229 H 0.14533079755443623 62.84092272394179 61.0350838942619 H 0.0 **** 0.06
28230 H 0.7664669457159334 64.43210770128542 60.53442019213975 H 0.0 **** 0.06
28231 C 22.81198075108398 57.05070540369286 44.37929650674551 C 0.0 **** -0.24
28232 H 23.51297422535211 56.29481349588747 44.02658240558819 H 0.0 **** 0.06
28233 H 22.272260423961967 57.469701522278285 43.5303625265766 H 0.0 **** 0.06
28234 H 23.359122430319957 57.8437383515099 44.889595889415105 H 0.0 **** 0.06
28235 H 22.103765183230365 56.59524063890922 45.07135810697072 H 0.0 **** 0.06
28236 C 50.01916575215792 35.26387864869278 68.82669175323979 C 0.0 **** -0.24
28237 H 50.98932070407481 35.18534001470735 69.31769152462518 H 0.0 **** 0.06
28238 H 50.16454787451918 35.47406100082054 67.76739194034731 H 0.0 **** 0.06
28239 H 49.446760905599874 36.071830013156784 69.28199052811252 H 0.0 **** 0.06
28240 H 49.47770338323391 34.32501579248549 68.94051496895699 H 0.0 **** 0.06
28241 C 98.86904122897835 96.488005543135 79.92571615742234 C 0.0 **** -0.24
28242 H 99.78149384082822 96.10165241797263 80.37915873478775 H 0.0 **** 0.06
28243 H 98.75121723809242 97.54069406620457 80.18594329642282 H 0.0 **** 0.06
28244 H 98.01228595931572 95.92487806353424 80.29644729861522 H 0.0 **** 0.06
28245 H 98.93036628546282 96.38507814821085 78.8424461617696 H 0.0 **** 0.06
28246 C 13.247872728424 56.130861683801015 48.34764486926554 C 0.0 **** -0.24
28247 H 13.85549113927874 56.6034905258839 47.575381577648905 H 0.0 **** 0.06
28248 H 13.868103698037999 55.45040513389296 48.93153198134908 H 0.0 **** 0.06
28249 H 12.436792112508954 55.573613539519386 47.88024098664806 H 0.0 **** 0.06
28250 H 12.83305576521289 56.897320996877795 49.00289882918847 H 0.0 **** 0.06
28251 C 9.648414133924945 20.527523011217816 12.744669352201626 C 0.0 **** -0.24
28252 H 10.258315814784225 19.795117811091227 12.215640735362499 H 0.0 **** 0.06
28253 H 9.377286767298415 21.333865473918884 12.063883447430626 H 0.0 **** 0.06
28254 H 10.214473076328005 20.93263686853699 13.583368783993947 H 0.0 **** 0.06
28255 H 8.744113044295005 20.044797816146573 13.116252004356369 H 0.0 **** 0.06
28256 C 1.6147261685517975 55.01522785030239 92.07011474043736 C 0.0 **** -0.24
28257 H 2.598985328180774 54.54879944085784 92.03347961231233 H 0.0 **** 0.06
28258 H 0.9441382528565327 54.50057574396094 91.38203861130543 H 0.0 **** 0.06
28259 H 1.6993091310884836 56.06288579907118 91.78157488664363 H 0.0 **** 0.06
28260 H 1.2185798117012752 54.94764389560207 93.08410352370615 H 0.0 **** 0.06
28261 C 3.935004464078048 69.24104912422757 32.831309779487555 C 0.0 **** -0.24
28262 H 3.208876597322046 69.93569922047055 33.253177361783685 H 0.0 **** 0.06
28263 H 4.930249522496325 69.68320856867837 32.878075272665654 H 0.0 **** 0.06
28264 H 3.6783574127643988 69.03470049371245 31.79237078753644 H 0.0 **** 0.06
28265 H 3.9219117732035045 68.31182255798666 33.399858124877056 H 0.0 **** 0.06
28266 C 74.05397851778827 43.815535639085525 22.910155462024107 C 0.0 **** -0.24
28267 H 74.56930332218937 44.72314762536258 22.596718848494447 H 0.0 **** 0.06
28268 H 74.69778080362642 43.24564051433848 23.58109132432682 H 0.0 **** 0.06
28269 H 73.81640285203241 43.212095834737696 22.03465910820205 H 0.0 **** 0.06
28270 H 73.1330066477129 44.08125834179428 23.42896752883817 H 0.0 **** 0.06
28271 C 6.016935601808905 103.28805665437108 24.82785958942702 C 0.0 **** -0.24
28272 H 6.224437684719776 103.14345526984175 23.766909967382077 H 0.0 **** 0.06
28273 H 6.906599200740741 103.04241410262193 25.40882360097379 H 0.0 **** 0.06
28274 H 5.19494904183974 102.63964805362735 25.12845734907134 H 0.0 **** 0.06
28275 H 5.743085819438878 104.32843067475113 25.0042027734346 H 0.0 **** 0.06
28276 C 76.92266790994086 81.35300432235138 93.90114529878218 C 0.0 **** -0.24
28277 H 77.17327739796207 81.27913690745392 92.84294201271433 H 0.0 **** 0.06
28278 H 76.34778898183731 80.47587665331925 94.19908824771659 H 0.0 **** 0.06
28279 H 76.3293124214299 82.25151276548613 94.07272788117155 H 0.0 **** 0.06
28280 H 77.83854578200987 81.40432755076262 94.4890520182696 H 0.0 **** 0.06
28281 C 79.89046210165098 50.66017971574507 81.1987260548971 C 0.0 **** -0.24
28282 H 79.32213224546017 51.589066238530336 81.14275508757021 H 0.0 **** 0.06
28283 H 79.24825066173611 49.824293295664575 80.92336081711045 H 0.0 **** 0.06
28284 H 80.25580462381626 50.51954040990938 82.21647119907527 H 0.0 **** 0.06
28285 H 80.73680187003468 50.71074445073941 80.51269108839307 H 0.0 **** 0.06
28286 C 71.1805143310673 78.35636075843402 56.229246307653796 C 0.0 **** -0.24
28287 H 72.25411271172352 78.51542391112324 56.126381562070605 H 0.0 **** 0.06
28288 H 70.73125255749763 79.2193421641725 56.72179651726148 H 0.0 **** 0.06
28289 H 71.0009594048584 77.46245012833239 56.82679926277605 H 0.0 **** 0.06
28290 H 70.73573265018956 78.2282268301079 55.24200788850705 H 0.0 **** 0.06
28291 C 43.624202422758344 16.653712309048387 22.583047150721654 C 0.0 **** -0.24
28292 H 44.595375444307024 17.052344204689348 22.87660513229929 H 0.0 **** 0.06
28293 H 42.8363039267137 17.187498241129333 23.11539317730157 H 0.0 **** 0.06
28294 H 43.576409565735105 15.593781324676229 22.832167291346167 H 0.0 **** 0.06
28295 H 43.489224013059584 16.781669002289618 21.509268031251622 H 0.0 **** 0.06
28296 C 53.35955089860861 95.90246815496374 47.86545756410706 C 0.0 **** -0.24
28297 H 54.027120152029816 95.21396187726117 47.34691429054594 H 0.0 **** 0.06
28298 H 52.80694979716552 96.49175252721267 47.13368392476937 H 0.0 **** 0.06
28299 H 53.94544903676891 96.56847051790959 48.499616828454144 H 0.0 **** 0.06
28300 H 52.6605677004004 95.33629108397798 48.48057112466088 H 0.0 **** 0.06
28301 C 62.81421860962948 82.24040723303071 81.48388672181378 C 0.0 **** -0.24
28302 H 62.04731150010903 82.46261357626952 82.22646235584457 H 0.0 **** 0.06
28303 H 63.63749093131159 81.70743582414428 81.95968171357825 H 0.0 **** 0.06
28304 H 63.183755603738376 83.17128236809336 81.05391161343073 H 0.0 **** 0.06
28305 H 62.38713159224105 81.62096757581321 80.69510797836418 H 0.0 **** 0.06
28306 C 74.00209902277797 60.942989534922674 91.14887325619654 C 0.0 **** -0.24
28307 H 74.46866308385421 60.41211925959442 90.3191989682953 H 0.0 **** 0.06
28308 H 74.13318882415078 60.3685529325619 92.06612391981619 H 0.0 **** 0.06
28309 H 72.93819735063806 61.068163993727694 90.94674876906888 H 0.0 **** 0.06
28310 H 74.46883837935613 61.92158325923276 91.26187507173952 H 0.0 **** 0.06
28311 C 29.09007915856651 52.47354960193255 34.19268212864313 C 0.0 **** -0.24
28312 H 28.8439993425053 53.49581523352259 34.47868453524541 H 0.0 **** 0.06
28313 H 30.075557503128238 52.21537948194538 34.58034864630446 H 0.0 **** 0.06
28314 H 29.09322380250663 52.391019352333444 33.105734759006566 H 0.0 **** 0.06
28315 H 28.346873053206053 51.79222736861249 34.60718595114139 H 0.0 **** 0.06
28316 C 64.92650619376619 36.990535682760196 104.03657152459095 C 0.0 **** -0.24
28317 H 64.53806814896518 36.674282125976305 105.00512680012002 H 0.0 **** 0.06
28318 H 64.49278259436082 36.36989843739522 103.25149635143987 H 0.0 **** 0.06
28319 H 66.01058945225822 36.88200723186799 104.02792718338014 H 0.0 **** 0.06
28320 H 64.66277357670569 38.0330596010279 103.8623170190258 H 0.0 **** 0.06
28321 C 25.10096786369536 52.42565103609931 58.23211212450874 C 0.0 **** -0.24
28322 H 25.78984579919461 52.83422370198493 57.49218286144715 H 0.0 **** 0.06
28323 H 25.51247276099349 52.57383700429408 59.230511015376045 H 0.0 **** 0.06
28324 H 24.963479842636275 51.358827559692216 58.04994045222098 H 0.0 **** 0.06
28325 H 24.14012026609163 52.93387584597225 58.15516335162611 H 0.0 **** 0.06
28326 C 93.80888189104948 10.190360079648428 7.976705189042683 C 0.0 **** -0.24
28327 H 93.38184290442248 10.413434084916815 8.9548628638757 H 0.0 **** 0.06
28328 H 94.78374658489864 10.671665509235908 7.888338347363673 H 0.0 **** 0.06
28329 H 93.14636918827253 10.564876259349063 7.1968730140153525 H 0.0 **** 0.06
28330 H 93.92538016329198 9.112312804356236 7.868160699767943 H 0.0 **** 0.06
28331 C 93.76005377608392 77.74948161847175 66.97884559839568 C 0.0 **** -0.24
28332 H 94.75755703965805 77.81993708778079 66.54492051168182 H 0.0 **** 0.06
28333 H 93.01379642353533 77.87074512701274 66.19353429547925 H 0.0 **** 0.06
28334 H 93.63326188899717 78.53212640934575 67.72607019853669 H 0.0 **** 0.06
28335 H 93.63707662371316 76.7740245379867 67.4495831233892 H 0.0 **** 0.06
28336 C 58.19227031149315 38.70760966986131 42.802702114208934 C 0.0 **** -0.24
28337 H 58.41873786923983 39.73588446367518 42.52243249609388 H 0.0 **** 0.06
28338 H 57.138425777563214 38.5034658617042 42.615406422379934 H 0.0 **** 0.06
28339 H 58.40797017867158 38.564773760291104 43.86241257511435 H 0.0 **** 0.06
28340 H 58.806058473502105 38.02656210963286 42.21310307747144 H 0.0 **** 0.06
28341 C 3.745794328297279 61.385338742682535 75.95899098906065 C 0.0 **** -0.24
28342 H 3.899758222490391 61.14338461212145 74.90817276030373 H 0.0 **** 0.06
28343 H 4.605713162593986 61.940123476227626 76.33423118250715 H 0.0 **** 0.06
28344 H 3.6300918684362387 60.46445656804184 76.53032334068376 H 0.0 **** 0.06
28345 H 2.846660544003271 61.99304006333554 76.06422065659254 H 0.0 **** 0.06
28346 C 66.4841639003792 96.62480709345286 12.99919085066561 C 0.0 **** -0.24
28347 H 65.65763462513337 97.14125985259543 12.512793342223517 H 0.0 **** 0.06
28348 H 66.60031088190425 95.6333772893278 12.562304718871562 H 0.0 **** 0.06
28349 H 66.27758075282819 96.53035195169363 14.065729355675664 H 0.0 **** 0.06
28350 H 67.40325191066097 97.19461807623057 12.856528813523237 H 0.0 **** 0.06
28351 C 98.79620835904953 69.43851075630144 61.47317741800978 C 0.0 **** -0.24
28352 H 99.30375658942084 69.53018422369162 62.43328182015054 H 0.0 **** 0.06
28353 H 98.91982485987845 68.42515012442378 61.09160713254428 H 0.0 **** 0.06
28354 H 99.22660694935135 70.14832762663296 60.76591097113746 H 0.0 **** 0.06
28355 H 97.73500536461594 69.65191313330138 61.60118654373578 H 0.0 **** 0.06
28356 C 96.57944046420435 99.57752864275345 25.37260061804801 C 0.0 **** -0.24
28357 H 97.00235332791868 100.06195350049391 26.252477857184658 H 0.0 **** 0.06
28358 H 95.52761014463898 99.84875129964645 25.278877709017195 H 0.0 **** 0.06
28359 H 96.66817539324053 98.49632454789074 25.476386474247818 H 0.0 **** 0.06
28360 H 97.11968941725381 99.90228982983416 24.483827920239293 H 0.0 **** 0.06
28361 C 104.8265545142986 96.75319920256158 44.27788924232007 C 0.0 **** -0.24
28362 H 104.93155702060282 96.97318362074532 45.340025302969366 H 0.0 **** 0.06
28363 H 105.72430290437417 97.07495407485874 43.75049345589733 H 0.0 **** 0.06
28364 H 103.96105493913099 97.28308866182817 43.88045705839508 H 0.0 **** 0.06
28365 H 104.68969814278091 95.68037376961297 44.141223068019 H 0.0 **** 0.06
28366 C 59.771517522494946 96.31604028734984 29.171162545572543 C 0.0 **** -0.24
28367 H 59.32948021666334 97.0346700101473 28.481323411664945 H 0.0 **** 0.06
28368 H 60.801585699121745 96.11619547242165 28.87582153348245 H 0.0 **** 0.06
28369 H 59.19971793062092 95.38928783573851 29.144804348564293 H 0.0 **** 0.06
28370 H 59.755105123303565 96.72545974136281 30.181337313789626 H 0.0 **** 0.06
28371 C 95.70228271691425 77.5819580131978 54.74905324764967 C 0.0 **** -0.24
28372 H 96.23693814143672 77.56904612424242 55.69812990738146 H 0.0 **** 0.06
28373 H 96.28191364920217 77.04425776195197 53.99844606147718 H 0.0 **** 0.06
28374 H 95.55948247466333 78.61352076237529 54.42771374275867 H 0.0 **** 0.06
28375 H 94.73159377800219 77.10156225841632 54.87216138370198 H 0.0 **** 0.06
28376 C 17.709946860374345 39.61702089201904 91.72059831233153 C 0.0 **** -0.24
28377 H 17.681133600124383 39.84017056178271 92.78745854735558 H 0.0 **** 0.06
28378 H 17.561615568298933 40.53586809747722 91.15247738205119 H 0.0 **** 0.06
28379 H 16.9201168312034 38.907288594952945 91.47705726497776 H 0.0 **** 0.06
28380 H 18.678651605049936 39.18495788235626 91.466802244571 H 0.0 **** 0.06
28381 C 22.544979182311096 47.40321014234058 55.38192133853593 C 0.0 **** -0.24
28382 H 23.544148996667133 47.83944054288693 55.36360557868846 H 0.0 **** 0.06
28383 H 21.80221092545719 48.192035589979696 55.26433127909391 H 0.0 **** 0.06
28384 H 22.388860326842035 46.893713991521565 56.33330208658843 H 0.0 **** 0.06
28385 H 22.44777159536889 46.68700412357188 54.56609088719549 H 0.0 **** 0.06
28386 C 76.21309960353301 66.26566908351018 46.11363471501276 C 0.0 **** -0.24
28387 H 77.15148258419742 66.5636836094281 45.64426864909214 H 0.0 **** 0.06
28388 H 75.37877083602109 66.7048429126258 45.568327937569585 H 0.0 **** 0.06
28389 H 76.19689625849719 66.61516116383376 47.14654492422995 H 0.0 **** 0.06
28390 H 76.12837016264996 65.17934239230459 46.0964613339485 H 0.0 **** 0.06
28391 C 21.390371182692036 19.09995117800898 74.13072482991132 C 0.0 **** -0.24
28392 H 20.321335812518782 19.22893508136763 73.96069468490727 H 0.0 **** 0.06
28393 H 21.589722289042754 18.06793121721828 74.42143723116858 H 0.0 **** 0.06
28394 H 21.714791087074957 19.770937141983982 74.92677339496485 H 0.0 **** 0.06
28395 H 21.934620343582026 19.332212690263788 73.21495565619759 H 0.0 **** 0.06
28396 C 48.3437466717745 102.7786630599131 10.20178292591882 C 0.0 **** -0.24
28397 H 47.985795476123066 101.7592148622755 10.051456253007672 H 0.0 **** 0.06
28398 H 49.35027951904711 102.8743572726005 9.793627334240796 H 0.0 **** 0.06
28399 H 48.360437482572905 103.00292786132925 11.26862848736124 H 0.0 **** 0.06
28400 H 47.67707746407779 103.47553177875814 9.69384704207016 H 0.0 **** 0.06
28401 C 17.039134640561684 34.120678311134945 40.119702537594264 C 0.0 **** -0.24
28402 H 17.896584008667872 33.880212955595724 40.7471008443363 H 0.0 **** 0.06
28403 H 17.26043779304429 33.85580448172416 39.08534934902753 H 0.0 **** 0.06
28404 H 16.83022448400554 35.18825205073965 40.18467591785505 H 0.0 **** 0.06
28405 H 16.170555333764895 33.55906020854656 40.46152666900582 H 0.0 **** 0.06
28406 C 26.99710874874853 100.7430361134093 47.67387961700052 C 0.0 **** -0.24
28407 H 26.293385843554972 101.17614160383323 46.9630192823729 H 0.0 **** 0.06
28408 H 26.671463834763614 99.73725428264302 47.940911534728514 H 0.0 **** 0.06
28409 H 27.03641906878778 101.36293135026183 48.570159343857284 H 0.0 **** 0.06
28410 H 27.98817507746338 100.69680810699916 47.221406130627145 H 0.0 **** 0.06
28411 C 13.668931270083768 19.71384227017056 43.19653837913998 C 0.0 **** -0.24
28412 H 13.9079092979397 19.13167852379337 42.30699324501492 H 0.0 **** 0.06
28413 H 12.727258947386947 19.363073611182372 43.617501846488466 H 0.0 **** 0.06
28414 H 13.577421056395714 20.766164624197614 42.92818928587019 H 0.0 **** 0.06
28415 H 14.463767819499154 19.594092742263484 43.932782645826904 H 0.0 **** 0.06
28416 C 43.37485082634021 93.72295310187539 25.270508087208142 C 0.0 **** -0.24
28417 H 44.26363892058748 94.33285776021503 25.10883639261033 H 0.0 **** 0.06
28418 H 43.45999226862398 93.2040349345242 26.224993578476102 H 0.0 **** 0.06
28419 H 43.28418886382798 92.994156180457 24.465656473974533 H 0.0 **** 0.06
28420 H 42.492446737995635 94.36340258502867 25.282007237270193 H 0.0 **** 0.06
28421 C 79.24255442654277 53.74052967562926 40.714395823201926 C 0.0 **** -0.24
28422 H 80.08093791130909 53.41453692626763 41.329650687803735 H 0.0 **** 0.06
28423 H 79.61928095359575 54.24622793080463 39.825234919270656 H 0.0 **** 0.06
28424 H 78.61755680173913 54.426612822981106 41.285776237288985 H 0.0 **** 0.06
28425 H 78.65188315032312 52.87344189505991 40.41692316373042 H 0.0 **** 0.06
28426 C 103.71369527009996 11.306800324046366 5.147143066136593 C 0.0 **** -0.24
28427 H 103.54628289921749 10.229991518587731 5.111567310419616 H 0.0 **** 0.06
28428 H 103.8578822625229 11.685245458069677 4.13495033775925 H 0.0 **** 0.06
28429 H 104.60060584611314 11.516543089011757 5.7443350539291345 H 0.0 **** 0.06
28430 H 102.84894825560428 11.793583931446033 5.598424620697173 H 0.0 **** 0.06
28431 C 96.70701911477747 65.09791448273647 43.82992390963056 C 0.0 **** -0.24
28432 H 97.258619573233 64.23180049814727 44.19357640963658 H 0.0 **** 0.06
28433 H 95.72468451634731 64.78210602396643 43.47901159864662 H 0.0 **** 0.06
28434 H 97.25530204492176 65.55895898083932 43.00792418857395 H 0.0 **** 0.06
28435 H 96.59069137613974 65.81974360971925 44.638405994160166 H 0.0 **** 0.06
28436 C 47.76960669795281 8.987318703480184 45.54654833205876 C 0.0 **** -0.24
28437 H 47.30969856221091 9.799680395452754 44.98510320625108 H 0.0 **** 0.06
28438 H 48.05128374299281 9.344117030777795 46.53762286952225 H 0.0 **** 0.06
28439 H 48.657461644193376 8.638036093717488 45.01929415381611 H 0.0 **** 0.06
28440 H 47.05921792438039 8.166289690026161 45.6444710933574 H 0.0 **** 0.06
28441 C 38.90635245725511 13.84946580027798 10.663710206048066 C 0.0 **** -0.24
28442 H 38.91344749067105 14.895867927557884 10.969155725092179 H 0.0 **** 0.06
28443 H 38.11385784965887 13.689904144717968 9.931721040732441 H 0.0 **** 0.06
28444 H 38.72984116177494 13.219125205555414 11.534821087873453 H 0.0 **** 0.06
28445 H 39.86903401376739 13.594305454693554 10.219925169647126 H 0.0 **** 0.06
28446 C 85.83786042464678 47.26206636651119 30.587315556839826 C 0.0 **** -0.24
28447 H 86.48916200920593 48.114855515627596 30.396083717874603 H 0.0 **** 0.06
28448 H 86.08516898423727 46.454568595550086 29.898085885115336 H 0.0 **** 0.06
28449 H 84.79870866310843 47.558538297360485 30.441587186692004 H 0.0 **** 0.06
28450 H 85.97840204203557 46.92030305750677 31.613505437677247 H 0.0 **** 0.06
28451 C 84.3735666026954 53.738699945090794 84.70937302027775 C 0.0 **** -0.24
28452 H 83.83943351829777 52.91067059859208 85.17617703757628 H 0.0 **** 0.06
28453 H 85.05697317728145 54.184272584349856 85.433150089187 H 0.0 **** 0.06
28454 H 83.65789077130796 54.49019001346485 84.37475603716183 H 0.0 **** 0.06
28455 H 84.93880044703373 53.369574157508474 83.85420022277381 H 0.0 **** 0.06
28456 C 59.2071562777256 98.88430906343282 103.1065242589062 C 0.0 **** -0.24
28457 H 59.88791013864372 98.78523397325635 102.26158759192705 H 0.0 **** 0.06
28458 H 59.34882098012466 99.85896467314636 103.57534868323197 H 0.0 **** 0.06
28459 H 59.41172481008647 98.09795801842887 103.83284955819096 H 0.0 **** 0.06
28460 H 58.178519296485234 98.7961948454318 102.75649630952009 H 0.0 **** 0.06
28461 C 100.90189651307932 80.53382015135168 85.40373200130756 C 0.0 **** -0.24
28462 H 100.61061683220076 81.18190843920797 84.57750358319356 H 0.0 **** 0.06
28463 H 101.36915054077723 81.13092482697925 86.1867699205003 H 0.0 **** 0.06
28464 H 101.60879724331396 79.78563782550202 85.04572466684522 H 0.0 **** 0.06
28465 H 100.01860804727445 80.03660266395968 85.8040430602178 H 0.0 **** 0.06
28466 C 22.013395660637116 105.5165360846197 22.62404305318387 C 0.0 **** -0.24
28467 H 21.48208576537249 104.56461098859535 22.61481624350307 H 0.0 **** 0.06
28468 H 22.922259333138925 105.43020537440486 22.028095433600527 H 0.0 **** 0.06
28469 H 22.273764962955738 105.77621639202454 23.650096495965897 H 0.0 **** 0.06
28470 H 21.374372305613292 106.29237668180753 22.202607154300097 H 0.0 **** 0.06
28471 C 33.37140651413847 34.09086808278934 65.97467730985613 C 0.0 **** -0.24
28472 H 33.015872539827626 34.08959405587436 67.00466257147957 H 0.0 **** 0.06
28473 H 32.852696412473335 34.86773739017184 65.41142985387984 H 0.0 **** 0.06
28474 H 33.172978222731984 33.11941747610268 65.52095638422503 H 0.0 **** 0.06
28475 H 34.44341002283687 34.28609194321521 65.96019277281053 H 0.0 **** 0.06
28476 C 106.1457827710068 86.48685012176459 36.732802578360634 C 0.0 **** -0.24
28477 H 105.98099914587999 85.4441734536801 36.45889659529425 H 0.0 **** 0.06
28478 H 105.76891988209854 86.66113127886132 37.74052483144368 H 0.0 **** 0.06
28479 H 105.621277694828 87.1340214815827 36.03067701355158 H 0.0 **** 0.06
28480 H 107.21260964138406 86.70519486604461 36.701615288583724 H 0.0 **** 0.06
28481 C 95.42058228698437 49.77805178093371 49.095424592839265 C 0.0 **** -0.24
28482 H 95.58097654738529 49.21152980120638 50.01310115202281 H 0.0 **** 0.06
28483 H 95.68107954613737 49.15901209005597 48.23613371752566 H 0.0 **** 0.06
28484 H 96.04817322028435 50.66919048405043 49.104651653653946 H 0.0 **** 0.06
28485 H 94.37305587452666 50.07113707148096 49.02835659149321 H 0.0 **** 0.06
28486 C 105.86064060936575 81.88564636740233 56.45669393672701 C 0.0 **** -0.24
28487 H 105.76978814598434 80.81762246723127 56.257549496251805 H 0.0 **** 0.06
28488 H 106.77851411241446 82.26207570244873 56.005999074096394 H 0.0 **** 0.06
28489 H 105.88777225768297 82.05269403009925 57.53341658130132 H 0.0 **** 0.06
28490 H 105.00424985464264 82.40776004345486 56.0295441872817 H 0.0 **** 0.06
28491 C 78.35778171152327 98.12823059873728 31.78230120744422 C 0.0 **** -0.24
28492 H 78.67603571343437 97.26675763494683 31.195516397317277 H 0.0 **** 0.06
28493 H 77.26863536817243 98.14680832112472 31.83717275766105 H 0.0 **** 0.06
28494 H 78.71388929868372 99.04212986397818 31.307352574937198 H 0.0 **** 0.06
28495 H 78.7715631957306 98.0554552195905 32.78780073947567 H 0.0 **** 0.06
28496 C 31.123680783294276 55.408373724865825 26.583713220035634 C 0.0 **** -0.24
28497 H 31.31468672835831 55.779066397847544 27.590929379173033 H 0.0 **** 0.06
28498 H 31.9794529596563 54.825042738455586 26.243504957776906 H 0.0 **** 0.06
28499 H 30.967746642305826 56.25174628911931 25.911033527860866 H 0.0 **** 0.06
28500 H 30.233671958781656 54.77943731665324 26.590419668298694 H 0.0 **** 0.06
28501 C 90.4278294746434 13.856524549096775 9.750799158409222 C 0.0 **** -0.24
28502 H 90.13746861055384 13.686832802499111 10.787409001527621 H 0.0 **** 0.06
28503 H 91.40505164377123 13.410444881461899 9.56909220394519 H 0.0 **** 0.06
28504 H 90.47554405560713 14.928017396067332 9.55759696789272 H 0.0 **** 0.06
28505 H 89.69104244687978 13.400911979858222 9.088783450606769 H 0.0 **** 0.06
28506 C 66.2062984496923 53.85547377585431 32.881275832977764 C 0.0 **** -0.24
28507 H 65.70709234558859 54.78939962300697 32.621946869479615 H 0.0 **** 0.06
28508 H 67.13091919806689 54.07440715964992 33.41495488674329 H 0.0 **** 0.06
28509 H 66.43390255482987 53.300516129240634 31.970947811668196 H 0.0 **** 0.06
28510 H 65.55224327561334 53.258218779599446 33.51654113518711 H 0.0 **** 0.06
28511 C 66.04550440318138 45.71678399056813 39.1150366780642 C 0.0 **** -0.24
28512 H 66.75527843048275 45.48560757905912 38.3211280075991 H 0.0 **** 0.06
28513 H 66.10556877429298 46.77785809287565 39.35762632900179 H 0.0 **** 0.06
28514 H 66.2874307392791 45.1274711247149 40.00035570001171 H 0.0 **** 0.06
28515 H 65.03640594530106 45.47614006092883 38.78197893036048 H 0.0 **** 0.06
28516 C 6.490521578761486 103.65448839692706 105.0321907002311 C 0.0 **** -0.24
28517 H 5.89477525456285 104.08189258152541 105.83805150501004 H 0.0 **** 0.06
28518 H 6.661277183878788 102.596046182268 105.22914834947522 H 0.0 **** 0.06
28519 H 7.447294600518253 104.17239799884626 104.97361861587851 H 0.0 **** 0.06
28520 H 5.957330302572753 103.76661017597871 104.08790446338014 H 0.0 **** 0.06
28521 C 97.0446318916155 80.95985510993822 37.050938599203306 C 0.0 **** -0.24
28522 H 97.46221780256852 81.15035748128798 38.04004910995556 H 0.0 **** 0.06
28523 H 96.0392643608986 81.3761252171648 36.9942994418424 H 0.0 **** 0.06
28524 H 97.00420089566947 79.88413394223764 36.875595854520014 H 0.0 **** 0.06
28525 H 97.67502553439623 81.42801669518792 36.29459984155389 H 0.0 **** 0.06
28526 C 105.14171872128202 15.24335901197881 50.52552910861888 C 0.0 **** -0.24
28527 H 104.67598781745437 15.216222001465951 51.51010717359165 H 0.0 **** 0.06
28528 H 104.72053078131256 14.452529335645437 49.90253715063612 H 0.0 **** 0.06
28529 H 106.21643669167759 15.091969049065 50.62660369921759 H 0.0 **** 0.06
28530 H 104.95312773591058 16.211460776284525 50.06091943733374 H 0.0 **** 0.06
28531 C 62.329364475946505 93.14113490868587 101.96207530040904 C 0.0 **** -0.24
28532 H 61.34655984336757 92.67008078125869 101.9288968872206 H 0.0 **** 0.06
28533 H 62.54144632451636 93.6052221104674 100.99918951362457 H 0.0 **** 0.06
28534 H 63.08573490627198 92.38731536014288 102.17804871581087 H 0.0 **** 0.06
28535 H 62.340554000074206 93.90192599703303 102.74316458106796 H 0.0 **** 0.06
28536 C 38.07242700735699 102.59367169781255 70.99602898214653 C 0.0 **** -0.24
28537 H 37.057903510542644 102.19683058605482 71.01597564398179 H 0.0 **** 0.06
28538 H 38.54592210559565 102.4272106926442 71.9634662260863 H 0.0 **** 0.06
28539 H 38.040997379500055 103.66272588764465 70.78598370251927 H 0.0 **** 0.06
28540 H 38.64488503378952 102.0879196249065 70.21869035599863 H 0.0 **** 0.06
28541 C 28.73179193085386 48.97689152583045 74.57382532565296 C 0.0 **** -0.24
28542 H 28.809250020153996 48.611834132610106 75.59761388752703 H 0.0 **** 0.06
28543 H 27.885094852562418 48.49826060167473 74.08049352937847 H 0.0 **** 0.06
28544 H 29.6488409093705 48.73923778755579 74.03396551423266 H 0.0 **** 0.06
28545 H 28.58468905855308 50.05680085460612 74.58255947904807 H 0.0 **** 0.06
28546 C 48.64219479190936 51.18808285617993 7.125574848597978 C 0.0 **** -0.24
28547 H 48.67574454255302 50.802048725391984 8.143933199026264 H 0.0 **** 0.06
28548 H 47.805121921375786 51.8790039067665 7.0258461454974395 H 0.0 **** 0.06
28549 H 48.515122161047486 50.3609474420488 6.427260268246187 H 0.0 **** 0.06
28550 H 49.57373869451985 51.709715855108634 6.903947412921752 H 0.0 **** 0.06
28551 C 17.71695528374515 99.12813756270903 49.598568160608636 C 0.0 **** -0.24
28552 H 16.86540061040688 98.46721132092966 49.439549892730554 H 0.0 **** 0.06
28553 H 17.40041905551263 99.99582884987896 50.17705008449053 H 0.0 **** 0.06
28554 H 18.1074444177317 99.45630691424462 48.63487170612865 H 0.0 **** 0.06
28555 H 18.495439354562677 98.59354288474194 50.142475109301245 H 0.0 **** 0.06
28556 C 29.73966897269888 24.867318290166622 96.15821612898952 C 0.0 **** -0.24
28557 H 30.186683458033137 25.2814026789178 95.25450551681602 H 0.0 **** 0.06
28558 H 30.012340069624997 25.485013470910303 97.01486770323721 H 0.0 **** 0.06
28559 H 30.106259150850377 23.852282918562878 96.31162586904098 H 0.0 **** 0.06
28560 H 28.655403215302407 24.849705490845025 96.05231891299677 H 0.0 **** 0.06
28561 C 44.62978678627144 60.12504401723737 37.83411304820356 C 0.0 **** -0.24
28562 H 44.636183410811725 59.45483486399812 36.97324628548495 H 0.0 **** 0.06
28563 H 43.786404749631004 60.81088961745564 37.753012695482596 H 0.0 **** 0.06
28564 H 45.560049949365464 60.69201308447501 37.859196956479764 H 0.0 **** 0.06
28565 H 44.536617514703096 59.53973797260912 38.74860963299773 H 0.0 **** 0.06
28566 C 66.03466271896345 93.86840208277584 70.47178079620635 C 0.0 **** -0.24
28567 H 65.03387863119276 93.91734990479466 70.90184947149999 H 0.0 **** 0.06
28568 H 66.51470002795338 94.84262530702534 70.55866550268127 H 0.0 **** 0.06
28569 H 65.96441545744356 93.58999734383758 69.42016211909267 H 0.0 **** 0.06
28570 H 66.62350998893345 93.12304180549512 71.00664308668946 H 0.0 **** 0.06
28571 C 18.424338085205804 47.91623483308712 88.09597755125424 C 0.0 **** -0.24
28572 H 18.373661511314538 47.194564765468215 88.91200755063207 H 0.0 **** 0.06
28573 H 17.898298635861096 47.51987627345963 87.2278168112863 H 0.0 **** 0.06
28574 H 19.466870917123572 48.0995109392812 87.83776479758035 H 0.0 **** 0.06
28575 H 17.95846228578887 48.850354363546074 88.40957624897271 H 0.0 **** 0.06
28576 C 40.877636070390565 58.16208153401406 70.80488063961795 C 0.0 **** -0.24
28577 H 40.6502671001673 58.93008867271992 70.06581902038546 H 0.0 **** 0.06
28578 H 41.30184054144456 57.29072990527093 70.30345693712731 H 0.0 **** 0.06
28579 H 39.962597375376816 57.873947715035015 71.3222188167292 H 0.0 **** 0.06
28580 H 41.595593281214406 58.552034802702366 71.52526839939543 H 0.0 **** 0.06
28581 C 62.556792649618274 19.303537266634578 13.908039980599426 C 0.0 **** -0.24
28582 H 63.62194336331942 19.123347879257295 13.762250897670697 H 0.0 **** 0.06
28583 H 62.04416394753454 18.35176977607884 14.05416065811886 H 0.0 **** 0.06
28584 H 62.14970241946847 19.805130017031956 13.030951675224287 H 0.0 **** 0.06
28585 H 62.412827851165645 19.93265852541964 14.786871204937881 H 0.0 **** 0.06
28586 C 86.692338136816 106.24587797496011 49.30685215320014 C 0.0 **** -0.24
28587 H 86.52469346627578 106.99772510631942 48.535620108846274 H 0.0 **** 0.06
28588 H 87.7413156101542 105.94915048606475 49.30342005236565 H 0.0 **** 0.06
28589 H 86.06748569703169 105.37577205680785 49.10740343742583 H 0.0 **** 0.06
28590 H 86.43521243431883 106.6620773239506 50.28129980097668 H 0.0 **** 0.06
28591 C 59.8851675983306 24.74148413883995 52.45887454012763 C 0.0 **** -0.24
28592 H 60.442750983792564 25.45817166594759 51.855234331281295 H 0.0 **** 0.06
28593 H 59.26982497442214 25.27641602925874 53.18141656529338 H 0.0 **** 0.06
28594 H 60.58263166748222 24.0900297766606 52.98513567261329 H 0.0 **** 0.06
28595 H 59.246628454364796 24.142032957662877 51.81022846014977 H 0.0 **** 0.06
28596 C 8.897558819372165 75.53850138998669 44.29442369319256 C 0.0 **** -0.24
28597 H 9.224950484904468 76.4794619733621 44.73613351490255 H 0.0 **** 0.06
28598 H 9.079021190810948 75.55820573755912 43.22007234090561 H 0.0 **** 0.06
28599 H 7.832267137534359 75.40116416066564 44.480936007474824 H 0.0 **** 0.06
28600 H 9.453111061719142 74.71465249459357 44.74152476931878 H 0.0 **** 0.06
28601 C 4.806164237952176 31.210919491926916 39.948751885074756 C 0.0 **** -0.24
28602 H 4.950802177833694 32.140750250815245 39.39774609566868 H 0.0 **** 0.06
28603 H 4.701809919281388 30.384816871841906 39.24578651139643 H 0.0 **** 0.06
28604 H 3.9043162440622465 31.28634906541778 40.55745242608393 H 0.0 **** 0.06
28605 H 5.6662934163250185 31.03419783572474 40.59410135132376 H 0.0 **** 0.06
28606 C 45.7075239301802 34.354095314478315 60.90057462580522 C 0.0 **** -0.24
28607 H 45.804186933287696 33.54171115847285 60.179455349644314 H 0.0 **** 0.06
28608 H 45.009003019868516 35.0979810240612 60.517661727370665 H 0.0 **** 0.06
28609 H 46.68228336985385 34.8166553288483 61.05758738296855 H 0.0 **** 0.06
28610 H 45.33649524708224 33.95787217428551 61.845914594760174 H 0.0 **** 0.06
28611 C 34.719226224455156 88.57163335693272 81.28217064972709 C 0.0 **** -0.24
28612 H 33.89539936089079 87.94453769978774 80.94100199104514 H 0.0 **** 0.06
28613 H 34.44618969171441 89.62129638232854 81.1722101687369 H 0.0 **** 0.06
28614 H 35.60649478522032 88.36183581084798 80.68372661930093 H 0.0 **** 0.06
28615 H 34.92930133490054 88.35728159289295 82.3302381551333 H 0.0 **** 0.06
28616 C 72.66742779373874 47.38658456437412 12.576142525416316 C 0.0 **** -0.24
28617 H 72.08469528860458 47.99986880155345 13.2643409232912 H 0.0 **** 0.06
28618 H 72.80716405381551 47.925585665105615 11.639012702188182 H 0.0 **** 0.06
28619 H 72.13802247521046 46.453048615509914 12.384524766865269 H 0.0 **** 0.06
28620 H 73.63925356352901 47.168918851465975 13.018811705504731 H 0.0 **** 0.06
28621 C 32.18149701369296 30.10076283606861 86.42858654985714 C 0.0 **** -0.24
28622 H 31.567885254912305 29.83749560163386 85.5668460466252 H 0.0 **** 0.06
28623 H 32.23593871840927 31.18572426575372 86.5174431729313 H 0.0 **** 0.06
28624 H 33.184471051766444 29.695043250916967 86.29791756680271 H 0.0 **** 0.06
28625 H 31.735072302018168 29.68383882561153 87.33261982315103 H 0.0 **** 0.06
28626 C 66.66097619713344 63.56187740170827 59.39042674504668 C 0.0 **** -0.24
28627 H 67.59159985880598 63.45780014947161 59.94946725679779 H 0.0 **** 0.06
28628 H 65.81590568115695 63.390789826118976 60.058296219196905 H 0.0 **** 0.06
28629 H 66.63923427909577 62.832079279494394 58.581404697325695 H 0.0 **** 0.06
28630 H 66.59758747209293 64.5676918928379 58.974562812683985 H 0.0 **** 0.06
28631 C 58.293516788676584 76.41715469080839 23.583591462137463 C 0.0 **** -0.24
28632 H 58.84358164683451 76.590597432745 22.65944487754777 H 0.0 **** 0.06
28633 H 58.46450502177541 75.39432861866567 23.92122087062296 H 0.0 **** 0.06
28634 H 57.22792678964626 76.56746229238189 23.406150335995534 H 0.0 **** 0.06
28635 H 58.63615851633861 77.11476917996072 24.3480725911364 H 0.0 **** 0.06
28636 C 80.6377734115278 39.88136041107009 64.2997460284227 C 0.0 **** -0.24
28637 H 81.37718631265321 39.16838595248407 63.934724522709175 H 0.0 **** 0.06
28638 H 79.77422318018722 39.34159200946789 64.68959192287676 H 0.0 **** 0.06
28639 H 80.32209325302986 40.52927557520022 63.481312928442236 H 0.0 **** 0.06
28640 H 81.07759090024132 40.4861881071281 65.09335473966244 H 0.0 **** 0.06
28641 C 4.673994616077389 31.330489977998297 61.39618400539388 C 0.0 **** -0.24
28642 H 4.695404845639789 31.946545818879713 62.29540173878519 H 0.0 **** 0.06
28643 H 5.034853455760494 30.32863547325428 61.63401854170826 H 0.0 **** 0.06
28644 H 5.315128986859174 31.775787064868666 60.63568751516141 H 0.0 **** 0.06
28645 H 3.652610716023199 31.269277118705475 61.021355254293894 H 0.0 **** 0.06
28646 C 68.51794687460152 12.622068552606848 21.59410239399574 C 0.0 **** -0.24
28647 H 68.48455343945007 11.693330138082743 22.16404060243147 H 0.0 **** 0.06
28648 H 69.53233613882755 13.018503723836886 21.60515673525515 H 0.0 **** 0.06
28649 H 67.83821546899152 13.347043140342677 22.041666649716518 H 0.0 **** 0.06
28650 H 68.21504035150288 12.427133577640731 20.56445935652667 H 0.0 **** 0.06
28651 C 55.376325298984796 93.01135252523373 103.49599953767944 C 0.0 **** -0.24
28652 H 56.205847743628766 92.31743089360478 103.35927353183646 H 0.0 **** 0.06
28653 H 55.17586699573263 93.13229436522099 104.56014530141502 H 0.0 **** 0.06
28654 H 54.4882281856392 92.61716537220185 103.00138782905532 H 0.0 **** 0.06
28655 H 55.635890262652964 93.97709745647718 103.06188954877607 H 0.0 **** 0.06
28656 C 94.77842022622215 93.25539072934126 8.04417527413591 C 0.0 **** -0.24
28657 H 95.08919181990362 94.17761733366729 8.534338286840509 H 0.0 **** 0.06
28658 H 95.13051030952661 93.25548790571403 7.012152350856098 H 0.0 **** 0.06
28659 H 93.69069223979776 93.18521753063385 8.057108313365035 H 0.0 **** 0.06
28660 H 95.20441938074632 92.4019853529951 8.572724930312688 H 0.0 **** 0.06
28661 C 98.17551957327713 27.638221589618155 40.06315213553683 C 0.0 **** -0.24
28662 H 97.47624120554593 27.3501905475253 39.27777094052219 H 0.0 **** 0.06
28663 H 98.34141302774978 28.715350112240117 40.02461298838817 H 0.0 **** 0.06
28664 H 99.12183529280318 27.11889601540031 39.915859368599115 H 0.0 **** 0.06
28665 H 97.76085702674266 27.36842135624852 41.034344962397945 H 0.0 **** 0.06
28666 C 0.5173277765580337 61.02214474128871 6.115637056466426 C 0.0 **** -0.24
28667 H 0.7254294243200263 61.477364097486316 5.147493608011104 H 0.0 **** 0.06
28668 H 1.1368041327645102 61.49401419209062 6.878875558870277 H 0.0 **** 0.06
28669 H 0.7429573394199451 59.95661205392949 6.072334611986179 H 0.0 **** 0.06
28670 H -0.534083441205425 61.16190531562685 6.363645255539183 H 0.0 **** 0.06
28671 C 25.35223035666758 93.26977806448865 31.402020564048826 C 0.0 **** -0.24
28672 H 24.67052472195495 94.11067108883535 31.532370436588593 H 0.0 **** 0.06
28673 H 25.103319528248075 92.74068033799747 30.4822381477706 H 0.0 **** 0.06
28674 H 25.258505938211975 92.59182299484074 32.25017641596821 H 0.0 **** 0.06
28675 H 26.375649422226367 93.63909314157368 31.342855882729452 H 0.0 **** 0.06
28676 C 28.424040409651887 49.12890295672844 46.251158121459405 C 0.0 **** -0.24
28677 H 29.39906999300348 49.30565094131492 46.70419909731329 H 0.0 **** 0.06
28678 H 27.892295446702708 50.075846678691875 46.15344614402967 H 0.0 **** 0.06
28679 H 27.847791220021932 48.45168876949302 46.881911276893675 H 0.0 **** 0.06
28680 H 28.557033964967644 48.68376758337757 45.265520822762745 H 0.0 **** 0.06
28681 C 55.95606568964449 17.462669923474323 76.71455249181611 C 0.0 **** -0.24
28682 H 56.124384460438684 16.86060535447558 75.82185560269716 H 0.0 **** 0.06
28683 H 56.90636194830953 17.870400535836154 77.06226152644959 H 0.0 **** 0.06
28684 H 55.52114027214937 16.839750691694803 77.49633266003644 H 0.0 **** 0.06
28685 H 55.27402110696228 18.279186464950044 76.47908360552 H 0.0 **** 0.06
28686 C 53.71773856853076 0.34623155957660856 22.19272191406879 C 0.0 **** -0.24
28687 H 53.897437819368236 1.0308594930887978 21.363903796507117 H 0.0 **** 0.06
28688 H 53.37997345613991 0.9104397074476083 23.062682059526797 H 0.0 **** 0.06
28689 H 54.6407951097886 -0.1793939041898227 22.43615399175562 H 0.0 **** 0.06
28690 H 52.95131551694362 -0.3755973602470988 21.908346318409546 H 0.0 **** 0.06
28691 C 51.08522979148691 37.839053521338116 72.71627288880052 C 0.0 **** -0.24
28692 H 51.507194977614404 37.95206976830278 73.71493520372269 H 0.0 **** 0.06
28693 H 50.55209970011507 38.74932882764978 72.44160966353027 H 0.0 **** 0.06
28694 H 50.393988597537486 36.99552857287972 72.7068898283959 H 0.0 **** 0.06
28695 H 51.888070389409854 37.65859344115921 72.00108209975463 H 0.0 **** 0.06
28696 C 63.586050413624136 98.17853921260563 59.35184231344653 C 0.0 **** -0.24
28697 H 63.321923279074355 98.45299196055934 58.3308950955119 H 0.0 **** 0.06
28698 H 62.94095044648212 97.36598999490053 59.68720561389923 H 0.0 **** 0.06
28699 H 63.45537436248257 99.03996611238423 60.00560610970709 H 0.0 **** 0.06
28700 H 64.62583152956681 97.85389821899582 59.38253652692877 H 0.0 **** 0.06
28701 C 55.76470817541781 20.294436753581465 87.54178396061383 C 0.0 **** -0.24
28702 H 56.3509140613358 19.5197315112527 88.035548207349 H 0.0 **** 0.06
28703 H 56.43512207674786 20.984896980403192 87.02911094028872 H 0.0 **** 0.06
28704 H 55.18126982032294 20.837406832326764 88.2844977874388 H 0.0 **** 0.06
28705 H 55.09331427111516 19.834122890326512 86.81744906308165 H 0.0 **** 0.06
28706 C 6.106485704615224 86.55629345717148 67.04308673081408 C 0.0 **** -0.24
28707 H 5.486562765612888 86.86999087061952 67.88251341314286 H 0.0 **** 0.06
28708 H 6.269258514307666 85.48033121118198 67.09374147275012 H 0.0 **** 0.06
28709 H 7.066600390100277 87.0727478332418 67.08842424793572 H 0.0 **** 0.06
28710 H 5.60456672159377 86.80508841215078 66.10766535739783 H 0.0 **** 0.06
28711 C 46.06565757789328 4.427810519459754 38.216143788666464 C 0.0 **** -0.24
28712 H 46.63552246528083 3.5348075435955053 37.95864734012935 H 0.0 **** 0.06
28713 H 45.58719346377028 4.824132805780593 37.31970945599234 H 0.0 **** 0.06
28714 H 46.73699914844461 5.178692096398066 38.63220272495901 H 0.0 **** 0.06
28715 H 45.30380318749217 4.172443683026714 38.95232674880069 H 0.0 **** 0.06
28716 C 81.25110521185337 0.8370080857245483 10.718647877658782 C 0.0 **** -0.24
28717 H 81.35820803321951 0.46809178212090785 9.699562325847722 H 0.0 **** 0.06
28718 H 80.35088046434475 1.4481384051144062 10.790889763479925 H 0.0 **** 0.06
28719 H 82.12117633486491 1.439503193930733 10.980494426422894 H 0.0 **** 0.06
28720 H 81.17443560179453 -0.007243327181697623 11.404489019662321 H 0.0 **** 0.06
28721 C 79.73114945885129 45.256565974525586 18.14333223844298 C 0.0 **** -0.24
28722 H 80.10601684836219 46.27782843389781 18.20926496921487 H 0.0 **** 0.06
28723 H 79.69620882512737 44.81681169137721 19.140779026199596 H 0.0 **** 0.06
28724 H 80.394214981982 44.667202642966345 17.509152663925192 H 0.0 **** 0.06
28725 H 78.73037210992837 45.264386529586886 17.713086749490145 H 0.0 **** 0.06
28726 C 96.22313603739012 20.526638792570026 25.55858439645525 C 0.0 **** -0.24
28727 H 95.33341930611708 21.151271265372543 25.469932328281885 H 0.0 **** 0.06
28728 H 96.55085761670247 20.508696982270976 26.598388417706545 H 0.0 **** 0.06
28729 H 97.0164963645818 20.93565830023101 24.933467517307957 H 0.0 **** 0.06
28730 H 95.98934526959421 19.513173897334013 25.2328245455827 H 0.0 **** 0.06
28731 C 49.77499426765781 87.43649642260502 81.85690281771362 C 0.0 **** -0.24
28732 H 50.583571590576724 86.76212870656425 81.57231246151667 H 0.0 **** 0.06
28733 H 48.822232580280044 87.01733912898678 81.53356393569773 H 0.0 **** 0.06
28734 H 49.92626491534255 88.40584447952423 81.3802359341411 H 0.0 **** 0.06
28735 H 49.770652753674796 87.56010657741095 82.93923055228947 H 0.0 **** 0.06
28736 C 12.959654777859853 75.25052927043495 3.2454553799259713 C 0.0 **** -0.24
28737 H 12.328963309764859 75.99785358690022 2.7647077202732646 H 0.0 **** 0.06
28738 H 13.70204539124029 75.7494264914049 3.869025330470947 H 0.0 **** 0.06
28739 H 13.464697028202622 74.65736596589119 2.4833029593180527 H 0.0 **** 0.06
28740 H 12.342983726320355 74.59815899517972 3.864063144049396 H 0.0 **** 0.06
28741 C 65.85096682782597 39.01459818333487 99.52679331117065 C 0.0 **** -0.24
28742 H 66.75252391754412 39.5919251961069 99.32571877338665 H 0.0 **** 0.06
28743 H 66.10748560681353 38.13660337071852 100.12040595934161 H 0.0 **** 0.06
28744 H 65.4035757358563 38.69926409957233 98.58422112259188 H 0.0 **** 0.06
28745 H 65.1400185396823 39.630803047890765 100.07777047287954 H 0.0 **** 0.06
28746 C 12.71013765862466 30.92396232055995 64.06535384503252 C 0.0 **** -0.24
28747 H 11.96848880852528 30.658189042051276 64.81860563108887 H 0.0 **** 0.06
28748 H 13.094803948140594 31.922603730635615 64.27030956769374 H 0.0 **** 0.06
28749 H 12.247127603088813 30.907317653546784 63.07842913807855 H 0.0 **** 0.06
28750 H 13.53022873364094 30.205378015026895 64.09342527860281 H 0.0 **** 0.06
28751 C 6.16898962240208 81.4635363901375 2.19092090992352 C 0.0 **** -0.24
28752 H 5.94189991636236 82.50080716326897 1.948095374880097 H 0.0 **** 0.06
28753 H 5.250613453221916 80.94483562586584 2.466056220559622 H 0.0 **** 0.06
28754 H 6.869629356738926 81.43111554943465 3.025680509924925 H 0.0 **** 0.06
28755 H 6.615997021572582 80.97689752720225 1.3238011205585423 H 0.0 **** 0.06
28756 C 27.265905068496647 15.594685120261971 33.49651510384544 C 0.0 **** -0.24
28757 H 27.93751123478166 16.113779660803175 32.812081204689434 H 0.0 **** 0.06
28758 H 26.991888818586666 16.263453880930825 34.31250539191561 H 0.0 **** 0.06
28759 H 27.76748040122762 14.714549425285142 33.89882226223364 H 0.0 **** 0.06
28760 H 26.36814766618509 15.287879662520723 32.96037823783607 H 0.0 **** 0.06
28761 C 69.36459801334034 70.13183103741278 87.21206209703097 C 0.0 **** -0.24
28762 H 69.26652596864069 69.1706608398218 87.71828093037672 H 0.0 **** 0.06
28763 H 69.7968454332848 69.97777564043568 86.22374596604959 H 0.0 **** 0.06
28764 H 70.01259880017636 70.78584370529322 87.79573848647883 H 0.0 **** 0.06
28765 H 68.38024885857273 70.59082661724219 87.11165004515848 H 0.0 **** 0.06
28766 C 96.24104982997608 70.41143559368933 75.33666138428931 C 0.0 **** -0.24
28767 H 96.64151960795155 69.62900355475253 75.98156896379551 H 0.0 **** 0.06
28768 H 95.88524638735898 71.2405703242558 75.94886825360334 H 0.0 **** 0.06
28769 H 95.41411768078092 70.01089117539681 74.75069886505334 H 0.0 **** 0.06
28770 H 97.02444671835147 70.76452666855053 74.66590604562316 H 0.0 **** 0.06
28771 C 84.2681012818637 9.63928816996921 79.73671895455882 C 0.0 **** -0.24
28772 H 83.42684495389258 9.505987550209747 79.05642236403452 H 0.0 **** 0.06
28773 H 83.8947255390174 9.775858350759203 80.75229953253773 H 0.0 **** 0.06
28774 H 84.84150858040287 10.517171867671811 79.43875083907824 H 0.0 **** 0.06
28775 H 84.90731864981811 8.757249385199566 79.69983482528724 H 0.0 **** 0.06
28776 C 43.84497110443181 63.438740633782615 87.97698782210617 C 0.0 **** -0.24
28777 H 43.83844643202366 64.20555282015714 87.20182316568726 H 0.0 **** 0.06
28778 H 43.82182029878106 62.4530289776756 87.51078041824162 H 0.0 **** 0.06
28779 H 42.9702271899863 63.56024851869209 88.61521786478667 H 0.0 **** 0.06
28780 H 44.74931305694258 63.53661242510189 88.57655716516582 H 0.0 **** 0.06
28781 C 31.637367254756242 53.25766447695917 106.1185065035862 C 0.0 **** -0.24
28782 H 31.260571393362852 52.48543332567349 105.44671508881991 H 0.0 **** 0.06
28783 H 31.92897400979308 52.80399411984136 107.06535304923875 H 0.0 **** 0.06
28784 H 30.85742959122257 53.997774138872785 106.29298734271023 H 0.0 **** 0.06
28785 H 32.502794262340444 53.74110106850766 105.66492533338973 H 0.0 **** 0.06
28786 C 83.82575615426275 104.05879942469443 85.48169178284078 C 0.0 **** -0.24
28787 H 83.47960560787163 103.45311833441116 84.64431736690054 H 0.0 **** 0.06
28788 H 84.45805582478799 104.86534182220583 85.10874372364619 H 0.0 **** 0.06
28789 H 84.39766847807603 103.4361253271747 86.16884963829558 H 0.0 **** 0.06
28790 H 82.96717585716156 104.48152277416659 86.00264236687894 H 0.0 **** 0.06
28791 C 42.12232222317897 38.56582423931226 96.47191411721013 C 0.0 **** -0.24
28792 H 41.729322656846875 39.263719825127026 95.73234071543243 H 0.0 **** 0.06
28793 H 41.30955834072975 38.212853464829436 97.10631950013891 H 0.0 **** 0.06
28794 H 42.8700893522456 39.069660891296024 97.08582676461805 H 0.0 **** 0.06
28795 H 42.58186418679048 37.71831241250979 95.96339214920113 H 0.0 **** 0.06
28796 C 29.24509326269464 68.46210351734396 75.0678662659616 C 0.0 **** -0.24
28797 H 30.088946694562225 67.84117381761918 74.76787563386715 H 0.0 **** 0.06
28798 H 29.607753829669775 69.3126790109249 75.64412081270031 H 0.0 **** 0.06
28799 H 28.56099343367913 67.87302569080676 75.67896238049956 H 0.0 **** 0.06
28800 H 28.722979930971206 68.81922113278256 74.17976243199807 H 0.0 **** 0.06
28801 C 2.310530943994138 100.70876143375281 43.331447370086735 C 0.0 **** -0.24
28802 H 3.2951914450981405 100.2495523012681 43.24577729300266 H 0.0 **** 0.06
28803 H 1.9058732377625347 100.51841594849711 44.32686113822051 H 0.0 **** 0.06
28804 H 1.6446413818362942 100.28363483290471 42.580626378774525 H 0.0 **** 0.06
28805 H 2.395597158004051 101.78393572076439 43.17396817788182 H 0.0 **** 0.06
28806 C 27.225475915281322 88.96013538087989 27.820082885065972 C 0.0 **** -0.24
28807 H 26.882481302525207 89.40692545742755 26.886587273392564 H 0.0 **** 0.06
28808 H 26.41666758806909 88.37768998125041 28.263031215323366 H 0.0 **** 0.06
28809 H 27.527718799114552 89.74669939174449 28.510745577506356 H 0.0 **** 0.06
28810 H 28.07497861993764 88.30761130417432 27.618126956254756 H 0.0 **** 0.06
28811 C 47.104906580742835 92.20616455951819 22.642991052621653 C 0.0 **** -0.24
28812 H 47.98856176020948 91.63715866915354 22.355021432815477 H 0.0 **** 0.06
28813 H 47.16509264941283 92.46059196106263 23.701259945826337 H 0.0 **** 0.06
28814 H 46.21258064126229 91.60644339367478 22.463370197587437 H 0.0 **** 0.06
28815 H 47.05277090313777 93.11996945680075 22.050476730748983 H 0.0 **** 0.06
28816 C 44.739565197185016 24.4719754671861 71.5285613505136 C 0.0 **** -0.24
28817 H 44.70228512290697 23.438909616423814 71.18386899456789 H 0.0 **** 0.06
28818 H 44.285327429507674 24.54123355399446 72.51700815107837 H 0.0 **** 0.06
28819 H 44.1929504093423 25.107730827532748 70.8316846568814 H 0.0 **** 0.06
28820 H 45.77769782698289 24.80002787079343 71.58168359952663 H 0.0 **** 0.06
28821 C 45.44634453685938 47.36924511483436 64.8490242338095 C 0.0 **** -0.24
28822 H 45.567839607623426 46.47499343671082 64.23855757147025 H 0.0 **** 0.06
28823 H 44.94104113683505 47.108224325504644 65.77850596916937 H 0.0 **** 0.06
28824 H 44.850119686052004 48.10228291167036 64.30472351866293 H 0.0 **** 0.06
28825 H 46.42596547353572 47.79242801806297 65.07334499128038 H 0.0 **** 0.06
28826 C 67.10209893136194 35.861456406536774 11.355740542917703 C 0.0 **** -0.24
28827 H 67.98021767902804 36.25651384328512 11.868521086840534 H 0.0 **** 0.06
28828 H 67.16039276347996 34.773543735517364 11.323498465761807 H 0.0 **** 0.06
28829 H 67.06815162021847 36.25430356729555 10.339364916510188 H 0.0 **** 0.06
28830 H 66.20248383589875 36.16164789765355 11.892496008211554 H 0.0 **** 0.06
28831 C 28.24489817366694 71.3043421794381 29.437905415852526 C 0.0 **** -0.24
28832 H 29.261713906874718 71.26493986245487 29.828913012906867 H 0.0 **** 0.06
28833 H 28.255316214152998 71.06511015456465 28.373952283985716 H 0.0 **** 0.06
28834 H 27.83870359361532 72.30622158566428 29.581534747379578 H 0.0 **** 0.06
28835 H 27.62413850816273 70.58205296069139 29.967130683921766 H 0.0 **** 0.06
28836 C 38.0584066110697 73.00477690784606 102.91931478928372 C 0.0 **** -0.24
28837 H 39.024914169877945 73.46856066203901 103.11413889791571 H 0.0 **** 0.06
28838 H 37.943739946648634 72.12348297267224 103.55083698863326 H 0.0 **** 0.06
28839 H 38.000817318785266 72.71055154409183 101.87105735675938 H 0.0 **** 0.06
28840 H 37.262446755333315 73.71642660566135 103.14095271431326 H 0.0 **** 0.06
28841 C 47.11048836241378 36.94642288555065 12.795288212080486 C 0.0 **** -0.24
28842 H 46.47988959091205 36.08675446580271 12.57004151767162 H 0.0 **** 0.06
28843 H 48.15712762671882 36.678430423850685 12.645321300226168 H 0.0 **** 0.06
28844 H 46.95749413907055 37.24680606674297 13.83185052047035 H 0.0 **** 0.06
28845 H 46.84847130658651 37.77253112251106 12.135543662421233 H 0.0 **** 0.06
28846 C 87.13936744126687 7.29655189465619 70.59094464994925 C 0.0 **** -0.24
28847 H 86.34346599345298 6.977228541795469 71.26454485617109 H 0.0 **** 0.06
28848 H 87.76122373278537 8.039050450132606 71.09021443392993 H 0.0 **** 0.06
28849 H 86.7007508868083 7.732975680356347 69.69298554489528 H 0.0 **** 0.06
28850 H 87.74907422104451 6.435827350373955 70.3160781176234 H 0.0 **** 0.06
28851 C 3.330206489560453 4.941912452631129 8.81705368761979 C 0.0 **** -0.24
28852 H 3.847371020204207 4.242589484626066 9.473215934293933 H 0.0 **** 0.06
28853 H 2.5173361792381 4.426559598446772 8.305417095598216 H 0.0 **** 0.06
28854 H 4.0313441047767355 5.336470129485548 8.08143761576946 H 0.0 **** 0.06
28855 H 2.9251846963982757 5.763304213436157 9.408602210679419 H 0.0 **** 0.06
28856 C 98.61774980351306 94.71832128677633 12.14417191775324 C 0.0 **** -0.24
28857 H 98.99870651441523 93.9876158711061 11.429944127198524 H 0.0 **** 0.06
28858 H 98.80545743501446 95.72448637693418 11.769762584191042 H 0.0 **** 0.06
28859 H 99.12074305424532 94.58613901121761 13.102267089261346 H 0.0 **** 0.06
28860 H 97.54485908899036 94.57311279961057 12.273847506607694 H 0.0 **** 0.06
28861 C 72.68196386078172 46.52187352565102 42.67212150648845 C 0.0 **** -0.24
28862 H 72.00261754540384 47.361656591326664 42.82120448246917 H 0.0 **** 0.06
28863 H 73.29494861039313 46.7030152474137 41.78857290446297 H 0.0 **** 0.06
28864 H 72.10517441735742 45.608065547954595 42.53304750567776 H 0.0 **** 0.06
28865 H 73.32524966836836 46.41706415677277 43.546472195821025 H 0.0 **** 0.06
28866 C 54.41953713610101 14.380356168136842 80.90527739664611 C 0.0 **** -0.24
28867 H 54.09920677740061 14.316788148785577 79.865109958961 H 0.0 **** 0.06
28868 H 53.82483233800508 13.696425093534287 81.51119176106187 H 0.0 **** 0.06
28869 H 54.28232977300439 15.40003531031806 81.2660298352045 H 0.0 **** 0.06
28870 H 55.473046525512984 14.108120900513896 80.97815186481694 H 0.0 **** 0.06
28871 C 77.56158050627349 102.28388743933556 57.998560189042536 C 0.0 **** -0.24
28872 H 77.95094790329838 101.29004977439763 57.77363016313359 H 0.0 **** 0.06
28873 H 76.50318056447799 102.32600923819064 57.74212304652795 H 0.0 **** 0.06
28874 H 78.10698237789288 103.02754686435594 57.41659780661428 H 0.0 **** 0.06
28875 H 77.68849733853267 102.4904213176477 59.06094973688383 H 0.0 **** 0.06
28876 C 10.173337669568582 64.37653203338175 24.783915946731952 C 0.0 **** -0.24
28877 H 9.51663487185192 64.41294945823165 25.652480200325243 H 0.0 **** 0.06
28878 H 11.190745319842875 64.15726071471818 25.106654904706005 H 0.0 **** 0.06
28879 H 10.153760169218202 65.33971526405105 24.27344310724405 H 0.0 **** 0.06
28880 H 9.831543182842495 63.59824563878743 24.10246787837488 H 0.0 **** 0.06
28881 C 32.82243712518668 105.68140355179541 13.60927412665771 C 0.0 **** -0.24
28882 H 32.573376059989194 106.30018757860505 12.748115286285326 H 0.0 **** 0.06
28883 H 32.20311718498279 104.78376510342865 13.603635678073346 H 0.0 **** 0.06
28884 H 32.63940410000661 106.24311572831043 14.525978609041573 H 0.0 **** 0.06
28885 H 33.87368357796167 105.39857536884668 13.561359727090462 H 0.0 **** 0.06
28886 C 96.17056859234012 103.97887644584867 43.63861928109611 C 0.0 **** -0.24
28887 H 95.86930190633625 102.94813716196873 43.83020399378695 H 0.0 **** 0.06
28888 H 96.81747338541517 104.01058259179958 42.76197533321513 H 0.0 **** 0.06
28889 H 96.70958633565996 104.36607264013199 44.50279672130298 H 0.0 **** 0.06
28890 H 95.28456238930711 104.58824147155342 43.45975902533887 H 0.0 **** 0.06
28891 C 77.08555624881132 76.78156165102571 91.0061818177439 C 0.0 **** -0.24
28892 H 77.20385454199334 75.69911872308741 90.95241797974761 H 0.0 **** 0.06
28893 H 77.28124301092731 77.11823391610851 92.02456397285587 H 0.0 **** 0.06
28894 H 76.0673440495651 77.04973931218208 90.72442063360019 H 0.0 **** 0.06
28895 H 77.7884900557682 77.25892084908298 90.32384689869421 H 0.0 **** 0.06
28896 C 72.05502732692139 96.22462258120068 84.09216931198813 C 0.0 **** -0.24
28897 H 71.07038560636983 96.69208835636981 84.10769821577327 H 0.0 **** 0.06
28898 H 72.70531962196395 96.77067357536941 83.40786820421954 H 0.0 **** 0.06
28899 H 71.96066809749124 95.19169783138754 83.75896750057296 H 0.0 **** 0.06
28900 H 72.48166318763316 96.2461621704936 85.09522046638384 H 0.0 **** 0.06
28901 C 13.013885822982939 51.25896460317307 15.055833899086338 C 0.0 **** -0.24
28902 H 13.027090102132671 50.9965338688628 13.997122631850203 H 0.0 **** 0.06
28903 H 14.036772983513316 51.385522653213116 15.41038378315659 H 0.0 **** 0.06
28904 H 12.528341325841762 50.46363134597411 15.620893396352585 H 0.0 **** 0.06
28905 H 12.464741779157805 52.1903392752545 15.191062261008994 H 0.0 **** 0.06
28906 C 31.411358466352226 98.45488361965704 79.30575402117097 C 0.0 **** -0.24
28907 H 31.264341170839998 98.86891725913009 78.30835853532373 H 0.0 **** 0.06
28908 H 30.91957034939469 99.09368743951238 80.04025990672378 H 0.0 **** 0.06
28909 H 32.477451648169335 98.40351436732557 79.52494844431351 H 0.0 **** 0.06
28910 H 30.983230775527204 97.45312472414453 79.34990754114905 H 0.0 **** 0.06
28911 C 89.06736061242455 7.998691406978608 45.978735531714136 C 0.0 **** -0.24
28912 H 88.18959699419881 8.239763859874103 46.57740719392933 H 0.0 **** 0.06
28913 H 89.21610336785685 8.771895297094972 45.223785117503155 H 0.0 **** 0.06
28914 H 88.92066171935411 7.0364859712780685 45.48868062210039 H 0.0 **** 0.06
28915 H 89.94421624622225 7.947741337664596 46.62439566407534 H 0.0 **** 0.06
28916 C 77.2550556244226 4.258863141357324 81.1224410747941 C 0.0 **** -0.24
28917 H 76.36210594741257 4.210879002209367 80.49837765599125 H 0.0 **** 0.06
28918 H 77.05836542685076 4.890916741945944 81.9887169794132 H 0.0 **** 0.06
28919 H 78.07957865021785 4.678713312091588 80.54569125790977 H 0.0 **** 0.06
28920 H 77.5189698761085 3.2553009499020504 81.45632565135833 H 0.0 **** 0.06
28921 C 21.584231028929224 88.9250188925453 58.77675547242945 C 0.0 **** -0.24
28922 H 20.74906748805435 88.23444107688996 58.88955530634795 H 0.0 **** 0.06
28923 H 21.647856528535158 89.56491691974077 59.65759772711584 H 0.0 **** 0.06
28924 H 21.42865487945224 89.54008118766937 57.89085586963107 H 0.0 **** 0.06
28925 H 22.51037173024622 88.36015593019296 58.669919393132034 H 0.0 **** 0.06
28926 C 57.49974811075887 91.2753363036461 44.832152986084196 C 0.0 **** -0.24
28927 H 57.52614116657145 90.5059282278285 44.05971180112772 H 0.0 **** 0.06
28928 H 58.3270532334329 91.12233842476189 45.52612319564642 H 0.0 **** 0.06
28929 H 56.55472755655667 91.21284342969253 45.37292517474279 H 0.0 **** 0.06
28930 H 57.588527229046434 92.25749281525978 44.36974139361081 H 0.0 **** 0.06
28931 C 101.8816813250684 0.4848327512744248 14.687933330526342 C 0.0 **** -0.24
28932 H 100.80586533506451 0.6169030692121282 14.80162184227489 H 0.0 **** 0.06
28933 H 102.28791936276517 0.02261518345032698 15.587886832921434 H 0.0 **** 0.06
28934 H 102.3527895769526 1.4553548722783631 14.53355873476194 H 0.0 **** 0.06
28935 H 102.07987228256115 -0.15620633902038605 13.829359570068299 H 0.0 **** 0.06
28936 C 64.22525593024889 35.10874466972743 23.3459309941844 C 0.0 **** -0.24
28937 H 64.91619253373531 35.667424269154026 22.71395040914804 H 0.0 **** 0.06
28938 H 63.71275828000424 34.35510874968128 22.74672248453369 H 0.0 **** 0.06
28939 H 63.492803014111615 35.79152710399899 23.775596611875415 H 0.0 **** 0.06
28940 H 64.78061977880174 34.61984837796666 24.147273734707895 H 0.0 **** 0.06
28941 C 74.95994588743562 27.749355487375624 60.63995208327128 C 0.0 **** -0.24
28942 H 75.71933172967407 27.221047420378568 60.06523968331652 H 0.0 **** 0.06
28943 H 74.14919163902888 28.053949334502107 59.978082876107045 H 0.0 **** 0.06
28944 H 75.40328652693263 28.631156010034715 61.10266433570274 H 0.0 **** 0.06
28945 H 74.56801438030448 27.090904399182193 61.41602722653114 H 0.0 **** 0.06
28946 C 36.726793680022666 33.97131826937457 68.95345768748777 C 0.0 **** -0.24
28947 H 37.432615827924735 34.510714993317606 69.58514271947232 H 0.0 **** 0.06
28948 H 35.968484550412256 33.49922240056969 69.5792983461877 H 0.0 **** 0.06
28949 H 37.25730273820852 33.20683386980295 68.38699993353302 H 0.0 **** 0.06
28950 H 36.248767831065265 34.66750717840785 68.26539160796173 H 0.0 **** 0.06
28951 C 102.45604320463234 106.83835985780402 18.649644510499 C 0.0 **** -0.24
28952 H 101.72783493011482 107.10622368736637 19.415917592453724 H 0.0 **** 0.06
28953 H 103.3812941233262 106.51315501523949 19.125996570760037 H 0.0 **** 0.06
28954 H 102.65647041348849 107.70476774036469 18.01974134361052 H 0.0 **** 0.06
28955 H 102.0575140443973 106.02855171468782 18.039003077901555 H 0.0 **** 0.06
28956 C 42.758892649174086 68.43199045445942 64.78693235384725 C 0.0 **** -0.24
28957 H 42.54860635645236 69.21553775678399 64.0596153914226 H 0.0 **** 0.06
28958 H 43.67425480292272 67.91073814321305 64.50457988158246 H 0.0 **** 0.06
28959 H 41.92936028569843 67.724497213608 64.8076235413098 H 0.0 **** 0.06
28960 H 42.88179308796989 68.87606223180006 65.77476606797887 H 0.0 **** 0.06
28961 C 40.564232126699665 99.09114614005092 56.660122426360175 C 0.0 **** -0.24
28962 H 39.805267930685034 98.34659219707244 56.41875857787761 H 0.0 **** 0.06
28963 H 41.20879197997556 99.24696926465174 55.794966681624004 H 0.0 **** 0.06
28964 H 41.162948763783305 98.74020951186831 57.50055479810874 H 0.0 **** 0.06
28965 H 40.080023734908934 100.03066424823555 56.92719298315316 H 0.0 **** 0.06
28966 C 25.537883297968676 67.89084192877132 5.806722656972582 C 0.0 **** -0.24
28967 H 25.217013532771148 67.75941977563855 6.839991019081452 H 0.0 **** 0.06
28968 H 25.283793968676093 67.00022928658856 5.230882836581941 H 0.0 **** 0.06
28969 H 26.616821484097187 68.04680792945749 5.778336802537169 H 0.0 **** 0.06
28970 H 25.03478066716596 68.75800802054843 5.377846845298151 H 0.0 **** 0.06
28971 C 34.09226981399536 98.52203152174923 60.024589637991255 C 0.0 **** -0.24
28972 H 33.73285361621515 99.53893659323951 59.863674042843286 H 0.0 **** 0.06
28973 H 33.482925266354414 97.82639857243558 59.44815603316613 H 0.0 **** 0.06
28974 H 34.02246877038601 98.27563238618696 61.08346353394711 H 0.0 **** 0.06
28975 H 35.13182066783452 98.44935714771267 59.70263120265713 H 0.0 **** 0.06
28976 C 19.679760097171055 103.30715193379092 101.88486433381728 C 0.0 **** -0.24
28977 H 18.95468420792787 102.7519291131347 101.2907025440615 H 0.0 **** 0.06
28978 H 19.61497456011753 104.36696245909012 101.6392993255551 H 0.0 **** 0.06
28979 H 20.683835757630987 102.94377237356366 101.66599434682969 H 0.0 **** 0.06
28980 H 19.465701954429477 103.1651342613783 102.94402710993384 H 0.0 **** 0.06
28981 C 95.9797383373704 55.084468029958316 102.66355715579903 C 0.0 **** -0.24
28982 H 95.95812619113015 55.72296415995817 101.78067534469551 H 0.0 **** 0.06
28983 H 96.7608108348242 55.42788178352953 103.34181776366802 H 0.0 **** 0.06
28984 H 96.18370617609646 54.0567658650524 102.36386720831536 H 0.0 **** 0.06
28985 H 95.01425943096145 55.13035477734428 103.16875479868759 H 0.0 **** 0.06
28986 C 66.48712471081919 54.951092504748516 14.769858909671655 C 0.0 **** -0.24
28987 H 66.00431743624291 54.47125883666786 15.620183797738832 H 0.0 **** 0.06
28988 H 66.80387838023086 55.95518286498353 15.05104451621824 H 0.0 **** 0.06
28989 H 65.78418621700752 55.0104501553858 13.938581052051546 H 0.0 **** 0.06
28990 H 67.35699075318976 54.36678192224437 14.46875934401723 H 0.0 **** 0.06
28991 C 92.92875550064099 56.72045661927786 35.147692276989915 C 0.0 **** -0.24
28992 H 91.92471538942209 57.059405356272734 34.892433745822416 H 0.0 **** 0.06
28993 H 93.62605744830506 57.55505817635867 35.06775485413141 H 0.0 **** 0.06
28994 H 93.22983860158075 55.92829319127012 34.46274721272465 H 0.0 **** 0.06
28995 H 92.93469661324104 56.33891169739388 36.1687784089321 H 0.0 **** 0.06
28996 C 81.0743248297727 54.14812824345814 2.5399745265502958 C 0.0 **** -0.24
28997 H 81.16945609209779 54.20761189733054 1.4562585140850928 H 0.0 **** 0.06
28998 H 80.01896521698882 54.163779642206116 2.812521473476494 H 0.0 **** 0.06
28999 H 81.58089404333236 54.99825281224715 2.995766704162037 H 0.0 **** 0.06
29000 H 81.52766755809 53.22256787393707 2.8944517021732423 H 0.0 **** 0.06
29001 C 32.32607115381546 103.95748891436685 30.047170629554074 C 0.0 **** -0.24
29002 H 32.98048469359395 104.42444056567612 30.783101857346367 H 0.0 **** 0.06
29003 H 31.43881794063651 103.56693516229026 30.54607867255308 H 0.0 **** 0.06
29004 H 32.85623483470951 103.14126205264672 29.555979312037948 H 0.0 **** 0.06
29005 H 32.02994262360792 104.69656512249804 29.303588151723517 H 0.0 **** 0.06
29006 C 60.8018747304655 49.555549218337205 60.790191644820794 C 0.0 **** -0.24
29007 H 60.867406242792754 49.14358807262454 59.783851106396156 H 0.0 **** 0.06
29008 H 60.06630238264279 50.360343819050115 60.80589899129106 H 0.0 **** 0.06
29009 H 61.77558319343399 49.947643795321596 61.08649798980994 H 0.0 **** 0.06
29010 H 60.50016829704009 48.77277231090585 61.485244298576106 H 0.0 **** 0.06
29011 C 62.14321017369275 50.57035937452636 57.08329174817669 C 0.0 **** -0.24
29012 H 61.651103463430246 51.47490486996011 56.72862281761624 H 0.0 **** 0.06
29013 H 62.078122159628904 49.79706974218314 56.317016039589646 H 0.0 **** 0.06
29014 H 61.653497894842005 50.22291937121011 57.99258378070144 H 0.0 **** 0.06
29015 H 63.190889127660355 50.78602033869518 57.29388111875494 H 0.0 **** 0.06
29016 C 51.32260324915177 42.34912644961335 96.58562791570391 C 0.0 **** -0.24
29017 H 51.064839792017096 41.73670891732087 95.72175786864463 H 0.0 **** 0.06
29018 H 52.28769200337763 42.03170152742655 96.98220058671954 H 0.0 **** 0.06
29019 H 50.557701716345775 42.23423230980342 97.35365440660868 H 0.0 **** 0.06
29020 H 51.379543599356396 43.39599974432625 96.28472447024504 H 0.0 **** 0.06
29021 C 91.37178568576627 87.58760021484865 53.16855941597481 C 0.0 **** -0.24
29022 H 92.40376798773175 87.36619562954614 52.89604473178764 H 0.0 **** 0.06
29023 H 90.82478541732308 87.91791934627821 52.28505292369681 H 0.0 **** 0.06
29024 H 91.35639764366235 88.37628853678073 53.92081911113121 H 0.0 **** 0.06
29025 H 90.90273172179943 86.69060435242577 53.572903958650215 H 0.0 **** 0.06
29026 C 71.57201555390569 44.20822955825783 26.79372483468515 C 0.0 **** -0.24
29027 H 71.99506173203886 45.08213613100078 26.298580483141677 H 0.0 **** 0.06
29028 H 71.44794100576749 43.40470594182816 26.068670388954814 H 0.0 **** 0.06
29029 H 70.60260192079116 44.466827298395 27.219589976631255 H 0.0 **** 0.06
29030 H 72.24287837386464 43.88100870568991 27.588910573863416 H 0.0 **** 0.06
29031 C 71.60395386891776 72.98486100441576 106.08773891285685 C 0.0 **** -0.24
29032 H 71.41613025896761 72.1819373486955 105.37607078434026 H 0.0 **** 0.06
29033 H 70.66783376357374 73.27140397372224 106.5686183724779 H 0.0 **** 0.06
29034 H 72.02146687316962 73.84423341173988 105.56333291367464 H 0.0 **** 0.06
29035 H 72.31086253718776 72.6425148979695 106.84352921916401 H 0.0 **** 0.06
29036 C 17.70267293330873 59.36339209037851 55.301291567089606 C 0.0 **** -0.24
29037 H 17.81873696619357 60.24560097087851 54.672256346612244 H 0.0 **** 0.06
29038 H 18.560616350685834 59.27794789385655 55.968438556332615 H 0.0 **** 0.06
29039 H 17.641621758087922 58.47481106004 54.672610221642685 H 0.0 **** 0.06
29040 H 16.79133398349597 59.45511827126262 55.891247737350284 H 0.0 **** 0.06
29041 C 20.084961298411713 24.394425708466997 6.7122173391622795 C 0.0 **** -0.24
29042 H 20.1669510698124 24.25478150793566 7.790631884911349 H 0.0 **** 0.06
29043 H 19.12302135085588 24.012538269722597 6.368656166639624 H 0.0 **** 0.06
29044 H 20.8904178705788 23.855427504548686 6.21372126210764 H 0.0 **** 0.06
29045 H 20.159135238464614 25.45684995219011 6.47737969357361 H 0.0 **** 0.06
29046 C 37.98946126542418 58.73736371259977 28.55227943960432 C 0.0 **** -0.24
29047 H 37.119106623213526 58.21411723882659 28.155094752320196 H 0.0 **** 0.06
29048 H 38.034464218602835 59.74097887255846 28.126934699247542 H 0.0 **** 0.06
29049 H 38.89314816104661 58.18933350743464 28.287133142726233 H 0.0 **** 0.06
29050 H 37.909755263228305 58.80458931362318 29.63650095804701 H 0.0 **** 0.06
29051 C 2.629214443474467 82.80112899381575 16.678371490296655 C 0.0 **** -0.24
29052 H 2.924042777405333 82.02212539152208 15.974796064352617 H 0.0 **** 0.06
29053 H 3.309363633684171 82.79724108937958 17.529672045321334 H 0.0 **** 0.06
29054 H 1.6130416151976306 82.61190509051147 17.02363049798342 H 0.0 **** 0.06
29055 H 2.670718153975514 83.7706887986991 16.183550446261634 H 0.0 **** 0.06
29056 C 13.60570654791536 69.69654013964501 85.0418972689653 C 0.0 **** -0.24
29057 H 14.069392601252616 69.23237994973458 84.17095334981528 H 0.0 **** 0.06
29058 H 13.35007546056113 70.73004394159834 84.80870349872944 H 0.0 **** 0.06
29059 H 14.303481564202627 69.67519812678874 85.87993505080192 H 0.0 **** 0.06
29060 H 12.70224821726049 69.1491475970032 85.30792938987403 H 0.0 **** 0.06
29061 C 92.151703089133 96.4854724875143 20.30757881111731 C 0.0 **** -0.24
29062 H 91.78500523151446 95.99836016152966 21.211184353981025 H 0.0 **** 0.06
29063 H 91.68071432104409 97.46342848006486 20.206487861303515 H 0.0 **** 0.06
29064 H 91.90802568510415 95.87339202463636 19.439625757675856 H 0.0 **** 0.06
29065 H 93.23326766341462 96.60776499492948 20.37393669961847 H 0.0 **** 0.06
29066 C 81.4973471672621 20.135315270413713 23.910623120531994 C 0.0 **** -0.24
29067 H 80.75646640072486 20.768495272500104 24.399380227623794 H 0.0 **** 0.06
29068 H 81.80273742726513 20.594522504479414 22.969236740928224 H 0.0 **** 0.06
29069 H 81.06387120382479 19.1548726312938 23.713497464305703 H 0.0 **** 0.06
29070 H 82.36533018617305 20.02503603198923 24.559868550582962 H 0.0 **** 0.06
29071 C 101.22639299449463 21.435315016179942 70.19492397796141 C 0.0 **** -0.24
29072 H 101.02820992150819 20.3942111355082 69.93620989100623 H 0.0 **** 0.06
29073 H 100.29201837723323 21.997218360658266 70.1750628795739 H 0.0 **** 0.06
29074 H 101.92353465387802 21.862208014558277 69.47373635076934 H 0.0 **** 0.06
29075 H 101.65959279366876 21.484774380634406 71.19369842301636 H 0.0 **** 0.06
29076 C 3.3712508678301845 19.562662596643122 78.09412082264038 C 0.0 **** -0.24
29077 H 2.438815448941682 19.079286798238 77.8019757392031 H 0.0 **** 0.06
29078 H 3.2706780636828086 20.642584659254624 77.98490010576404 H 0.0 **** 0.06
29079 H 4.180591068595632 19.206913299320547 77.45555239091681 H 0.0 **** 0.06
29080 H 3.5958931616831933 19.3207645469912 79.13237022772432 H 0.0 **** 0.06
29081 C 95.52302121138877 69.25102175909639 95.68640878326032 C 0.0 **** -0.24
29082 H 96.38697233104611 69.81561474193357 96.03708945880403 H 0.0 **** 0.06
29083 H 94.70876126675523 69.93938055314878 95.45802169380966 H 0.0 **** 0.06
29084 H 95.20444968821442 68.55551517795386 96.46304737390136 H 0.0 **** 0.06
29085 H 95.79185537905985 68.69484228112394 94.78865811574046 H 0.0 **** 0.06
29086 C 4.967462723208294 77.61168467750782 58.18481026927197 C 0.0 **** -0.24
29087 H 4.024292862414404 77.75899474170353 58.710430893251186 H 0.0 **** 0.06
29088 H 5.7916885440274815 77.66358729833325 58.89638994481677 H 0.0 **** 0.06
29089 H 5.088243401520492 78.39023415300612 57.43088686704509 H 0.0 **** 0.06
29090 H 4.964930375360488 76.63457316899841 57.70183781620167 H 0.0 **** 0.06
29091 C 43.142793053859975 78.14416219932696 48.4883402055014 C 0.0 **** -0.24
29092 H 42.84391529853332 78.61674694798376 47.55264129328964 H 0.0 **** 0.06
29093 H 42.32776157740824 78.21848142985323 49.20905936288321 H 0.0 **** 0.06
29094 H 44.02524950998986 78.6466520325925 48.88400453636751 H 0.0 **** 0.06
29095 H 43.37264228094995 77.09417593412314 48.30621415036609 H 0.0 **** 0.06
29096 C 97.74796263337109 10.021189805030069 77.1551898753844 C 0.0 **** -0.24
29097 H 97.50538208949493 10.486657364617892 76.20034889509242 H 0.0 **** 0.06
29098 H 98.76618571213862 10.286287340841774 77.4403613646917 H 0.0 **** 0.06
29099 H 97.66611004706502 8.938175034668912 77.06156358820553 H 0.0 **** 0.06
29100 H 97.05318112402622 10.373765168361752 77.9185181457291 H 0.0 **** 0.06
29101 C 88.47070836660868 102.68207569403644 50.485145993241964 C 0.0 **** -0.24
29102 H 87.64686693235855 101.97705027307141 50.37288661970265 H 0.0 **** 0.06
29103 H 88.1000476087489 103.69768758142808 50.34754225154562 H 0.0 **** 0.06
29104 H 89.2348411817391 102.46882565285372 49.7379712165231 H 0.0 **** 0.06
29105 H 88.89961944674585 102.58211942017356 51.482284771111054 H 0.0 **** 0.06
29106 C 96.97992718492443 4.538127289155199 29.879200357625038 C 0.0 **** -0.24
29107 H 97.95394929654921 4.345179311960038 30.32953772152611 H 0.0 **** 0.06
29108 H 97.11723937182362 4.99575977980021 28.8985176044203 H 0.0 **** 0.06
29109 H 96.4117584198519 5.213021009664345 30.519034248914735 H 0.0 **** 0.06
29110 H 96.43759729972692 3.598830559450704 29.77018354769762 H 0.0 **** 0.06
29111 C 92.53814335517107 16.454977814941586 70.64385728409289 C 0.0 **** -0.24
29112 H 92.20548465437525 16.341781147981717 71.67594131017756 H 0.0 **** 0.06
29113 H 92.54366859815796 15.479760562506652 70.15542657203542 H 0.0 **** 0.06
29114 H 93.5430439241822 16.875617504039656 70.62968854436026 H 0.0 **** 0.06
29115 H 91.85664150103636 17.122545866967947 70.11447185828479 H 0.0 **** 0.06
29116 C 76.24787521460519 58.35789648482071 97.46315340411917 C 0.0 **** -0.24
29117 H 75.96384179974805 57.31523827935351 97.32475708663797 H 0.0 **** 0.06
29118 H 76.02516952887854 58.66222224587762 98.48542277985305 H 0.0 **** 0.06
29119 H 75.68723052568936 58.98331316350937 96.76725521213561 H 0.0 **** 0.06
29120 H 77.31493410742547 58.47195180511871 97.27440656012259 H 0.0 **** 0.06
29121 C 4.289642177232267 106.38904548473147 104.47617039362457 C 0.0 **** -0.24
29122 H 4.941361348560918 107.20381894596153 104.1607690073742 H 0.0 **** 0.06
29123 H 3.24982780435748 106.71188419764667 104.41836058558732 H 0.0 **** 0.06
29124 H 4.527350211012788 106.11032534832674 105.50326908919389 H 0.0 **** 0.06
29125 H 4.440835281504675 105.53006664373703 103.82344178130984 H 0.0 **** 0.06
29126 C 36.30459875252805 93.97930521062767 53.10966661278502 C 0.0 **** -0.24
29127 H 36.99558087619644 94.44473042664714 52.40714561112139 H 0.0 **** 0.06
29128 H 36.41453481474687 94.44513814281787 54.08936324191106 H 0.0 **** 0.06
29129 H 36.527463695902554 92.91466663256432 53.18631949072886 H 0.0 **** 0.06
29130 H 35.28295969380153 94.11150110964218 52.75582694856192 H 0.0 **** 0.06
29131 C 91.0950693586763 71.84636774116217 73.55699061938321 C 0.0 **** -0.24
29132 H 91.49475883015185 72.46379718450987 72.75286818327089 H 0.0 **** 0.06
29133 H 91.20456071026233 70.79364609317614 73.29489422481629 H 0.0 **** 0.06
29134 H 90.03979971853657 72.0770267747368 73.70171825177442 H 0.0 **** 0.06
29135 H 91.64115817575447 72.05100091222585 74.47848181767091 H 0.0 **** 0.06
29136 C 7.227314478813776 20.689431409979704 98.3134094269089 C 0.0 **** -0.24
29137 H 7.551751767192105 21.640330343805914 97.89119105452153 H 0.0 **** 0.06
29138 H 6.153934629047926 20.571809848582888 98.16071486715867 H 0.0 **** 0.06
29139 H 7.446086512199617 20.672206375438392 99.38091810876234 H 0.0 **** 0.06
29140 H 7.755839515355582 19.87391808626694 97.82085794589419 H 0.0 **** 0.06
29141 C 34.208066728055485 57.08560484365654 30.44013411144556 C 0.0 **** -0.24
29142 H 33.91282038854473 56.04963379049167 30.607233763436 H 0.0 **** 0.06
29143 H 35.295075647660326 57.15150652044076 30.398682161968395 H 0.0 **** 0.06
29144 H 33.83779789859972 57.70442725861477 31.25746912156069 H 0.0 **** 0.06
29145 H 33.785275212204255 57.43517020141792 29.49837135408967 H 0.0 **** 0.06
29146 C 71.49598040409765 100.69747101174895 94.74486557770986 C 0.0 **** -0.24
29147 H 71.40905438359873 101.73823823774683 95.05605062211053 H 0.0 **** 0.06
29148 H 71.17414722829537 100.04714424693391 95.55893391889862 H 0.0 **** 0.06
29149 H 72.5348328654442 100.47879259541477 94.49487740453597 H 0.0 **** 0.06
29150 H 70.8678448449038 100.52544242220091 93.87104833560154 H 0.0 **** 0.06
29151 C 72.2260648945454 77.00882894168603 86.87574221463213 C 0.0 **** -0.24
29152 H 72.08016006340961 76.52330212213292 85.91069288627243 H 0.0 **** 0.06
29153 H 72.4935399700301 76.25947571455401 87.62184851269456 H 0.0 **** 0.06
29154 H 71.30468325654579 77.50754120065375 87.17572495786736 H 0.0 **** 0.06
29155 H 73.02749827497973 77.74323388635236 86.79419081864889 H 0.0 **** 0.06
29156 C 87.13625171122885 46.75831426741837 53.86832301579025 C 0.0 **** -0.24
29157 H 87.41291563673285 47.59402111336763 53.22700190936894 H 0.0 **** 0.06
29158 H 87.63041009013986 46.86319913458422 54.83531601897617 H 0.0 **** 0.06
29159 H 87.44643544977038 45.82351164127701 53.401505277767 H 0.0 **** 0.06
29160 H 86.0555922435331 46.7519106035175 54.01181458872098 H 0.0 **** 0.06
29161 C 34.101375179730894 9.207436586847502 25.657648758264134 C 0.0 **** -0.24
29162 H 33.484893764944104 10.08456578518172 25.464165725888556 H 0.0 **** 0.06
29163 H 33.461462859766215 8.369128935232082 25.937565399974883 H 0.0 **** 0.06
29164 H 34.79461209943702 9.422056390189192 26.469915674253663 H 0.0 **** 0.06
29165 H 34.66205084042642 8.952370517347248 24.758495934070766 H 0.0 **** 0.06
29166 C 28.43206934203373 87.12470362860168 22.529451199076313 C 0.0 **** -0.24
29167 H 29.488297764625493 86.86984748739052 22.446568490722388 H 0.0 **** 0.06
29168 H 28.315460212836218 87.96747892367516 23.211654155659772 H 0.0 **** 0.06
29169 H 27.879016907285777 86.26746481439804 22.912814353592008 H 0.0 **** 0.06
29170 H 28.045922638341924 87.3964182388436 21.54647121400597 H 0.0 **** 0.06
29171 C 95.29504142986315 7.35900445692522 16.362081856996213 C 0.0 **** -0.24
29172 H 94.34491202088986 6.858536068963133 16.550215398481555 H 0.0 **** 0.06
29173 H 95.10756182359563 8.357197308824823 15.966750196076333 H 0.0 **** 0.06
29174 H 95.87101673363043 6.783108135999441 15.637654780823908 H 0.0 **** 0.06
29175 H 95.85559249913607 7.43523404085164 17.29394304298279 H 0.0 **** 0.06
29176 C 80.65390409042017 14.279972153830954 82.09018211005585 C 0.0 **** -0.24
29177 H 81.38444638863358 13.482918322848533 81.9519003376075 H 0.0 **** 0.06
29178 H 79.68279230445188 13.84527577075528 82.32887166137496 H 0.0 **** 0.06
29179 H 80.57543956558958 14.86425972570514 81.17322787426627 H 0.0 **** 0.06
29180 H 80.97378583583273 14.926703116633675 82.90759232992374 H 0.0 **** 0.06
29181 C 26.796983891485496 64.59023019089767 11.769841017763582 C 0.0 **** -0.24
29182 H 27.108897475078674 63.612594179256405 12.137473249203367 H 0.0 **** 0.06
29183 H 26.05580473410555 65.01299734889845 12.447349724522908 H 0.0 **** 0.06
29184 H 26.362464807882276 64.48249698614332 10.775712526281382 H 0.0 **** 0.06
29185 H 27.66252995803261 65.25154973140597 11.71933137905333 H 0.0 **** 0.06
29186 C 92.82004160861456 21.008493035814126 78.93298604056707 C 0.0 **** -0.24
29187 H 92.17655373272054 20.78384910577905 78.08282186257281 H 0.0 **** 0.06
29188 H 92.31714320985037 20.718457535279473 79.8564888279401 H 0.0 **** 0.06
29189 H 93.0331756056878 22.076462432233747 78.95543377005794 H 0.0 **** 0.06
29190 H 93.75337887419424 20.454007328427156 78.83795008247631 H 0.0 **** 0.06
29191 C 54.45061872369511 30.341046279555314 70.8820713191632 C 0.0 **** -0.24
29192 H 53.53989077881385 30.00954417934784 71.3823479866161 H 0.0 **** 0.06
29193 H 55.31427079861795 29.865482131039983 71.34751043272831 H 0.0 **** 0.06
29194 H 54.53920451745981 31.423711793661965 70.97068078806666 H 0.0 **** 0.06
29195 H 54.40657158656486 30.064849790499153 69.8288443591936 H 0.0 **** 0.06
29196 C 96.26610005469405 63.34853028350224 7.238153891862396 C 0.0 **** -0.24
29197 H 96.74961525237256 64.17730953397549 7.755277391398266 H 0.0 **** 0.06
29198 H 96.52032100051957 63.38328778719645 6.1784259226280085 H 0.0 **** 0.06
29199 H 95.18516874446027 63.4297528378993 7.35526125750593 H 0.0 **** 0.06
29200 H 96.6081564046325 62.405654719065296 7.664044486219154 H 0.0 **** 0.06
29201 C 75.40893777918427 60.093350648169974 12.419465064850513 C 0.0 **** -0.24
29202 H 75.42123194611798 59.72816282366972 13.4465923364383 H 0.0 **** 0.06
29203 H 75.81142201627068 59.32686868452441 11.757106740097129 H 0.0 **** 0.06
29204 H 76.01850236772447 60.99406213382849 12.346811500065357 H 0.0 **** 0.06
29205 H 74.38420042101285 60.32369344319329 12.129211351546815 H 0.0 **** 0.06
29206 C 21.58647557990406 25.62746672710989 86.88591225439595 C 0.0 **** -0.24
29207 H 20.948992050669915 26.503840044227246 86.99585857150986 H 0.0 **** 0.06
29208 H 22.530048275649563 25.7970962812104 87.40584797246628 H 0.0 **** 0.06
29209 H 21.78146273636753 25.449971846776492 85.828201853807 H 0.0 **** 0.06
29210 H 21.086721681251333 24.758534879294388 87.31400826006464 H 0.0 **** 0.06
29211 C 28.698418480272423 69.27850009075206 38.625545969389904 C 0.0 **** -0.24
29212 H 27.62962552484189 69.06746676246149 38.57070674070887 H 0.0 **** 0.06
29213 H 29.255788316432728 68.43629043502403 38.21705311647112 H 0.0 **** 0.06
29214 H 28.984263303192485 69.435047309135 39.66557885481847 H 0.0 **** 0.06
29215 H 28.921114974155202 70.1764583204511 38.04852601119591 H 0.0 **** 0.06
29216 C 42.336094101466976 26.948510040440866 58.033511670434905 C 0.0 **** -0.24
29217 H 41.81356401941471 27.834676086843515 57.67503056837248 H 0.0 **** 0.06
29218 H 43.22953246686998 26.785197571318363 57.431247932589685 H 0.0 **** 0.06
29219 H 41.67930666964327 26.08175882275468 57.95244161534768 H 0.0 **** 0.06
29220 H 42.62128383705504 27.092281854699593 59.07603995431586 H 0.0 **** 0.06
29221 C 47.6842139727248 55.68109743735788 87.12985039119727 C 0.0 **** -0.24
29222 H 47.836079839629996 56.559729736436886 86.5020432557831 H 0.0 **** 0.06
29223 H 47.4630824742189 54.819517931863935 86.50012242746874 H 0.0 **** 0.06
29224 H 46.85077688308635 55.85984230035925 87.80819656772175 H 0.0 **** 0.06
29225 H 48.58854522685289 55.487554483692904 87.70753443646296 H 0.0 **** 0.06
29226 C 33.19870090772913 67.51311888552436 62.92187149239743 C 0.0 **** -0.24
29227 H 33.43899727235595 66.5164839702565 62.55060306506044 H 0.0 **** 0.06
29228 H 34.037666910519874 68.18275695093087 62.73126813959641 H 0.0 **** 0.06
29229 H 33.00708708357821 67.46493500546381 63.9942138829866 H 0.0 **** 0.06
29230 H 32.31194873296816 67.88643302816433 62.41055672220995 H 0.0 **** 0.06
29231 C 39.93874397521182 78.74441450501755 22.57976723247029 C 0.0 **** -0.24
29232 H 39.73533976008599 77.99288298702778 23.342611784202347 H 0.0 **** 0.06
29233 H 39.734455531303524 79.73587664391938 22.98468425245352 H 0.0 **** 0.06
29234 H 39.29929766337307 78.56628393115881 21.7153827083867 H 0.0 **** 0.06
29235 H 40.98400359710905 78.68287874845758 22.277938885665264 H 0.0 **** 0.06
29236 C 71.54636267472458 44.730630441035885 97.00096837472961 C 0.0 **** -0.24
29237 H 72.20493897074576 43.889127579778915 96.78618732697292 H 0.0 **** 0.06
29238 H 71.4846951343001 44.87648844201689 98.07922217005944 H 0.0 **** 0.06
29239 H 70.55293532011487 44.52311677388539 96.60406555513546 H 0.0 **** 0.06
29240 H 71.94364901798954 45.63147298111326 96.53418154204817 H 0.0 **** 0.06
29241 C 47.38349330094641 4.760134681535263 10.024687125760465 C 0.0 **** -0.24
29242 H 46.55871907889726 5.462086596676215 9.899968566361508 H 0.0 **** 0.06
29243 H 47.6866496111935 4.377944690549654 9.049698001999218 H 0.0 **** 0.06
29244 H 47.06285297300439 3.9315776552781756 10.656252439654281 H 0.0 **** 0.06
29245 H 48.2260970270668 5.269366482944662 10.493660144728324 H 0.0 **** 0.06
29246 C 53.60017911546419 50.423994755908495 3.825994071865125 C 0.0 **** -0.24
29247 H 52.629599760435866 50.29548418122158 4.304478582272168 H 0.0 **** 0.06
29248 H 54.15366703361448 51.21441880137792 4.332638569022265 H 0.0 **** 0.06
29249 H 53.45662144738114 50.6938390571018 2.7800156168406147 H 0.0 **** 0.06
29250 H 54.16105644654007 49.49094646532376 3.886311949332935 H 0.0 **** 0.06
29251 C 94.55253797099824 50.96622545886444 39.02135095214841 C 0.0 **** -0.24
29252 H 95.36138896082574 50.349972864639795 39.41489581573471 H 0.0 **** 0.06
29253 H 94.92643893753167 51.57506580910922 38.19918300929541 H 0.0 **** 0.06
29254 H 94.17391297345944 51.614882889224646 39.81247258837817 H 0.0 **** 0.06
29255 H 93.74857202671946 50.324225966285894 38.66290281236036 H 0.0 **** 0.06
29256 C 30.651179365368137 5.641643642456586 81.64363940124588 C 0.0 **** -0.24
29257 H 30.642303012550883 4.87082820444553 82.41457422335668 H 0.0 **** 0.06
29258 H 31.626631879798452 6.128767717955753 81.62879768393407 H 0.0 **** 0.06
29259 H 29.879425569793227 6.379543458651966 81.85930483402305 H 0.0 **** 0.06
29260 H 30.458313601510298 5.186017614816933 80.67228393720421 H 0.0 **** 0.06
29261 C 52.32043203514737 1.4637701796474687 73.54139868261188 C 0.0 **** -0.24
29262 H 51.88114931644213 2.2275158678292826 72.9000384859458 H 0.0 **** 0.06
29263 H 53.29864824944857 1.798602113025055 73.88737462124433 H 0.0 **** 0.06
29264 H 52.43051793170049 0.5375126344396506 72.97851707198978 H 0.0 **** 0.06
29265 H 51.67020134676433 1.292268898736694 74.39873585669801 H 0.0 **** 0.06
29266 C 20.85155018717171 44.51529118869225 46.672499198703356 C 0.0 **** -0.24
29267 H 21.198070061760518 45.203414321045635 47.444463772836635 H 0.0 **** 0.06
29268 H 20.210202541045703 45.0506296289375 45.971390276111876 H 0.0 **** 0.06
29269 H 20.289572790797934 43.704754563509475 47.13448556838518 H 0.0 **** 0.06
29270 H 21.710369570002342 44.104994526756315 46.139845751652054 H 0.0 **** 0.06
29271 C 7.50352804937198 50.79018271134561 33.36868420458805 C 0.0 **** -0.24
29272 H 8.152504069850238 50.2487115108039 32.67957476252627 H 0.0 **** 0.06
29273 H 6.664938153240257 50.15511685975429 33.65335073459016 H 0.0 **** 0.06
29274 H 7.13011584673157 51.69086598058638 32.88235443952428 H 0.0 **** 0.06
29275 H 8.069139527806698 51.065482324712406 34.258452406408736 H 0.0 **** 0.06
29276 C 76.6754661773688 104.32554878229854 91.90644239482444 C 0.0 **** -0.24
29277 H 76.79064449364799 104.37075053151034 92.98918587479756 H 0.0 **** 0.06
29278 H 76.69264430766552 105.33591253199154 91.49734738116717 H 0.0 **** 0.06
29279 H 75.72573812099785 103.85037741537519 91.66195830017591 H 0.0 **** 0.06
29280 H 77.49350816618269 103.7450726778032 91.47801553148014 H 0.0 **** 0.06
29281 C 48.7148274383141 80.06356116218059 52.610924695413985 C 0.0 **** -0.24
29282 H 48.4022292971743 80.98329580155512 53.104315265576076 H 0.0 **** 0.06
29283 H 49.804747159101254 80.02773130882113 52.567761425814695 H 0.0 **** 0.06
29284 H 48.30968159840069 80.03735450214047 51.5996671923059 H 0.0 **** 0.06
29285 H 48.345064095985066 79.20588777962662 53.172379165342136 H 0.0 **** 0.06
29286 C 12.61398581532194 0.23099283824738626 37.53523025432162 C 0.0 **** -0.24
29287 H 11.791007514780745 -0.08117386140586769 38.17799176970516 H 0.0 **** 0.06
29288 H 13.189906532560826 1.0099389444974252 38.034108959345446 H 0.0 **** 0.06
29289 H 12.21500664030259 0.6173904384110962 36.59752176810531 H 0.0 **** 0.06
29290 H 13.258082464778795 -0.6239633163575204 37.329859414515056 H 0.0 **** 0.06
29291 C 61.20353213048787 84.87825412828926 69.89186351602359 C 0.0 **** -0.24
29292 H 62.17973186550208 85.20479545560926 70.24917221672962 H 0.0 **** 0.06
29293 H 61.3318494826413 84.07328719844986 69.16835290990798 H 0.0 **** 0.06
29294 H 60.691689807256964 85.71548353751575 69.41776959996633 H 0.0 **** 0.06
29295 H 60.6106294448585 84.5194527521914 70.73355509459356 H 0.0 **** 0.06
29296 C 98.72919411122118 103.22931501114883 10.423408527173024 C 0.0 **** -0.24
29297 H 98.86042805903307 104.2483687874097 10.785303115288485 H 0.0 **** 0.06
29298 H 98.68898297837632 103.23283587397981 9.333372539643136 H 0.0 **** 0.06
29299 H 97.80019963972265 102.81881747508783 10.81944484499084 H 0.0 **** 0.06
29300 H 99.56745206672196 102.61566195650721 10.75366031826158 H 0.0 **** 0.06
29301 C 36.392587976009935 105.82571389131729 61.22988106302313 C 0.0 **** -0.24
29302 H 36.01177220808066 105.52317575431124 60.25444796433885 H 0.0 **** 0.06
29303 H 36.85028378014704 106.81207459785566 61.15056623777582 H 0.0 **** 0.06
29304 H 37.1366377221791 105.1048617533965 61.56863890099163 H 0.0 **** 0.06
29305 H 35.56958203614826 105.86305379248483 61.944608794062674 H 0.0 **** 0.06
29306 C 53.02456817512021 93.85321713452473 69.39441270912772 C 0.0 **** -0.24
29307 H 53.503486598352104 94.82325693490354 69.52617240834286 H 0.0 **** 0.06
29308 H 52.401104264708806 93.87338372286567 68.50021429930536 H 0.0 **** 0.06
29309 H 52.40612389402151 93.63207551546296 70.26415735575728 H 0.0 **** 0.06
29310 H 53.788273629006 93.08203419257885 69.28714379350299 H 0.0 **** 0.06
29311 C 23.21335560952275 5.100961455367781 43.207849767129105 C 0.0 **** -0.24
29312 H 23.4468536009868 4.203906884590651 42.63506756096359 H 0.0 **** 0.06
29313 H 22.131967182170257 5.194922443781593 43.311257440353664 H 0.0 **** 0.06
29314 H 23.607097050882658 5.9752189817675685 42.68967783521492 H 0.0 **** 0.06
29315 H 23.667416603635246 5.029191672958461 44.19618696698452 H 0.0 **** 0.06
29316 C 52.18025970607107 30.511479936712277 19.508827362470527 C 0.0 **** -0.24
29317 H 51.72038469293449 31.2950630488198 20.11059904975062 H 0.0 **** 0.06
29318 H 51.5856155852 29.600711188155117 19.58360296418934 H 0.0 **** 0.06
29319 H 53.18895295134297 30.318082635279467 19.874736036866096 H 0.0 **** 0.06
29320 H 52.22596243539675 30.83281534095221 18.468699252685752 H 0.0 **** 0.06
29321 C 62.728973560549974 36.95006206652691 51.16736825785542 C 0.0 **** -0.24
29322 H 62.55153404261826 38.01183736641647 51.33585593562261 H 0.0 **** 0.06
29323 H 63.77083890228664 36.79704696831746 50.883546555364205 H 0.0 **** 0.06
29324 H 62.07824241773393 36.59592122714909 50.36862368310411 H 0.0 **** 0.06
29325 H 62.51649115395524 36.39730920710504 52.08247000643009 H 0.0 **** 0.06
29326 C 91.64318827467669 39.244033820137645 16.828288202523453 C 0.0 **** -0.24
29327 H 91.86202276212107 38.434676332424345 17.52522267389844 H 0.0 **** 0.06
29328 H 91.38659182757561 38.82502115978755 15.8548507869138 H 0.0 **** 0.06
29329 H 92.51927945557387 39.88556644288843 16.729425269722697 H 0.0 **** 0.06
29330 H 90.8044467229513 39.830146062404424 17.204205436179393 H 0.0 **** 0.06
29331 C 91.19980461199717 82.12240614437955 3.4132261768905243 C 0.0 **** -0.24
29332 H 90.77570547086114 81.3131970051729 2.8188179080274285 H 0.0 **** 0.06
29333 H 91.8285074875161 82.74802345857307 2.7781132210742534 H 0.0 **** 0.06
29334 H 91.80073897253627 81.70340518512809 4.220536410313504 H 0.0 **** 0.06
29335 H 90.39432690006106 82.72517899755238 3.833715521485435 H 0.0 **** 0.06
29336 C 4.0992279438444115 51.196122885958005 88.85887444771897 C 0.0 **** -0.24
29337 H 4.027020626305898 52.00445853654563 88.13053981851183 H 0.0 **** 0.06
29338 H 3.2648357432755546 51.26256005695976 89.55720995028945 H 0.0 **** 0.06
29339 H 5.0379346882568115 51.28239298006088 89.40522761247666 H 0.0 **** 0.06
29340 H 4.0660312581147195 50.237209159874 88.34199134810659 H 0.0 **** 0.06
29341 C 34.28134539422575 12.183526733970695 93.23313734695294 C 0.0 **** -0.24
29342 H 34.576863220253415 13.227107974321257 93.34670746305234 H 0.0 **** 0.06
29343 H 35.07523075643752 11.63518525468578 92.72553377757181 H 0.0 **** 0.06
29344 H 33.36621953182686 12.127870778710587 92.64478990405792 H 0.0 **** 0.06
29345 H 34.10875188148384 11.746260322744973 94.21685798799028 H 0.0 **** 0.06
29346 C 87.84743851329979 105.33321454913609 61.30173134997088 C 0.0 **** -0.24
29347 H 88.18612282826949 104.66449231442189 60.51076346924077 H 0.0 **** 0.06
29348 H 86.88062506287551 105.75718614134067 61.02982959833511 H 0.0 **** 0.06
29349 H 88.57203360405843 106.13675938165721 61.43357354331937 H 0.0 **** 0.06
29350 H 87.750972557996 104.77442035912424 62.23275878898809 H 0.0 **** 0.06
29351 C 96.84004416487835 66.60917141650476 58.47760822706334 C 0.0 **** -0.24
29352 H 96.50557239787793 65.57867071785346 58.59342538312529 H 0.0 **** 0.06
29353 H 96.01344310366346 67.22193453380142 58.11702982304956 H 0.0 **** 0.06
29354 H 97.66053736043386 66.64646691162206 57.76031908350734 H 0.0 **** 0.06
29355 H 97.18228547697743 66.99032518974008 59.44051448494571 H 0.0 **** 0.06
29356 C 35.11482320937908 81.78702296932553 93.39367900005051 C 0.0 **** -0.24
29357 H 34.7741378152987 82.77582535180728 93.08718430020099 H 0.0 **** 0.06
29358 H 34.39299143268905 81.03732557722493 93.06736399699155 H 0.0 **** 0.06
29359 H 35.20618089879297 81.75493723623124 94.4789001473439 H 0.0 **** 0.06
29360 H 36.0839965598266 81.58077306965887 92.94058667160508 H 0.0 **** 0.06
29361 C 75.21401836434211 85.47698048077757 13.381282201562698 C 0.0 **** -0.24
29362 H 74.43975095286663 85.58180082467396 12.621632050070275 H 0.0 **** 0.06
29363 H 75.1699075323653 86.32619289298455 14.063831292225757 H 0.0 **** 0.06
29364 H 76.19184643536312 85.4445897727181 12.902242801175646 H 0.0 **** 0.06
29365 H 75.0526131140054 84.55344902843319 13.938690293490168 H 0.0 **** 0.06
29366 C 92.77034123751807 5.416676314642643 54.44381499085378 C 0.0 **** -0.24
29367 H 92.4751363689263 4.51568137824637 54.980958256531565 H 0.0 **** 0.06
29368 H 93.56767344127583 5.174301332607868 53.73897417284104 H 0.0 **** 0.06
29369 H 93.1271618261409 6.162783686906906 55.153241890648125 H 0.0 **** 0.06
29370 H 91.91223421963129 5.812304858860912 53.900466016528256 H 0.0 **** 0.06
29371 C 22.881564014286084 46.292465704287736 8.79715005426516 C 0.0 **** -0.24
29372 H 23.967358634949903 46.200632502504334 8.797765649146157 H 0.0 **** 0.06
29373 H 22.580022325718687 47.029989440405245 8.05363136792755 H 0.0 **** 0.06
29374 H 22.544144204293048 46.61086599361778 9.783422749062126 H 0.0 **** 0.06
29375 H 22.435453340455666 45.32764518665181 8.554752925755764 H 0.0 **** 0.06
29376 C 74.6324243967808 2.219866735750358 35.279756185398355 C 0.0 **** -0.24
29377 H 73.59075532489442 2.2299963707236987 34.959043480205736 H 0.0 **** 0.06
29378 H 75.14846949189261 1.3827504407320523 34.80976951660526 H 0.0 **** 0.06
29379 H 74.67657985758815 2.1119761467423395 36.363947435813685 H 0.0 **** 0.06
29380 H 75.11127569408353 3.1533182200981136 34.987719598628686 H 0.0 **** 0.06
29381 C 58.74392226395908 47.56963228822326 73.92024727785206 C 0.0 **** -0.24
29382 H 57.952544192660554 48.316048585172894 73.98320070429325 H 0.0 **** 0.06
29383 H 58.535582927073605 46.89016345915326 73.09273497026251 H 0.0 **** 0.06
29384 H 58.78568647413141 47.00560618603936 74.8513696955812 H 0.0 **** 0.06
29385 H 59.69856188752157 48.06613903059423 73.75204245864549 H 0.0 **** 0.06
29386 C 43.391991946653036 105.12983345280381 1.6071108725977563 C 0.0 **** -0.24
29387 H 42.934049381198264 104.14071862891926 1.5919060098574738 H 0.0 **** 0.06
29388 H 44.469718547953875 105.02832062581292 1.7413543275303676 H 0.0 **** 0.06
29389 H 42.97681035626161 105.709959178337 2.430966488863306 H 0.0 **** 0.06
29390 H 43.188618782524145 105.63922727697071 0.6653396794558137 H 0.0 **** 0.06
29391 C 102.74502477857075 31.07993770677291 35.67738847430678 C 0.0 **** -0.24
29392 H 103.4953567807843 30.4314722450479 35.22449205951142 H 0.0 **** 0.06
29393 H 101.79499751859012 30.954713477906637 35.15696475291344 H 0.0 **** 0.06
29394 H 103.06824004566081 32.117480731759116 35.60170489136951 H 0.0 **** 0.06
29395 H 102.62166313333049 30.81353594456695 36.72796726515841 H 0.0 **** 0.06
29396 C 34.89901163378008 21.144919552016106 62.75339079383947 C 0.0 **** -0.24
29397 H 35.841425658977954 21.36585470452735 63.25467232858938 H 0.0 **** 0.06
29398 H 34.33368847769192 22.067633505305622 62.61959829328475 H 0.0 **** 0.06
29399 H 34.319786249886306 20.448540364792223 63.3594185751428 H 0.0 **** 0.06
29400 H 35.101893303950334 20.69876638938925 61.7803152345853 H 0.0 **** 0.06
29401 C 43.644180852333136 82.66466678406556 64.98440541785979 C 0.0 **** -0.24
29402 H 44.20503569347042 83.58178122411246 65.16477909222831 H 0.0 **** 0.06
29403 H 43.66190488895063 82.04634876805673 65.88200076453185 H 0.0 **** 0.06
29404 H 44.097472446327714 82.1183519618842 64.15775040165872 H 0.0 **** 0.06
29405 H 42.61274280698436 82.91314490114789 64.73403589121588 H 0.0 **** 0.06
29406 C 40.735471180773374 88.8348973775677 1.9156930071266345 C 0.0 **** -0.24
29407 H 41.638185858896065 89.38603451364975 1.655347664956409 H 0.0 **** 0.06
29408 H 40.89318643200042 87.77191314253582 1.7334428513205609 H 0.0 **** 0.06
29409 H 39.90464182713427 89.18893613741966 1.3047094667209649 H 0.0 **** 0.06
29410 H 40.5046268772613 88.99203735168788 2.969191289652116 H 0.0 **** 0.06
29411 C 22.03992475292003 62.066327334632476 86.91406367981286 C 0.0 **** -0.24
29412 H 22.204652952697014 62.26424073802964 87.97270033241053 H 0.0 **** 0.06
29413 H 21.006654306960634 62.29926794771805 86.65760599503498 H 0.0 **** 0.06
29414 H 22.23801868199336 61.014836937093634 86.70604817963658 H 0.0 **** 0.06
29415 H 22.71037307002916 62.68696371568848 86.31990021216905 H 0.0 **** 0.06
29416 C 46.21349216162511 7.924679168185946 30.201356188231046 C 0.0 **** -0.24
29417 H 45.75739265584224 8.87970646404301 29.937889155235666 H 0.0 **** 0.06
29418 H 46.6246611234983 7.459625506780469 29.3044671428664 H 0.0 **** 0.06
29419 H 45.45809149117267 7.270544669553715 30.63749334704528 H 0.0 **** 0.06
29420 H 47.01214317990096 8.091357951822431 30.92421955281509 H 0.0 **** 0.06
29421 C 73.74263156637062 13.737351352431318 87.82106474470464 C 0.0 **** -0.24
29422 H 74.15441092797789 14.141254306847799 88.74568999114675 H 0.0 **** 0.06
29423 H 73.44995210634858 12.69854794970388 87.97637401008116 H 0.0 **** 0.06
29424 H 74.49731669254987 13.789307566365977 87.03511582449585 H 0.0 **** 0.06
29425 H 72.87061098975323 14.32026125675506 87.52570592192818 H 0.0 **** 0.06
29426 C 16.180133205256737 13.877643650301223 35.77985571365741 C 0.0 **** -0.24
29427 H 16.794177311452216 13.466239230175404 36.58111719170395 H 0.0 **** 0.06
29428 H 16.552522394303793 14.864551562495507 35.507226440352355 H 0.0 **** 0.06
29429 H 15.147199168587377 13.958902310653656 36.11864772066747 H 0.0 **** 0.06
29430 H 16.226202012207835 13.218736919458706 34.911968418499185 H 0.0 **** 0.06
29431 C 58.042964108231445 91.44805704321567 3.532544122138437 C 0.0 **** -0.24
29432 H 58.84864848824395 91.14611671154273 2.8644473056228428 H 0.0 **** 0.06
29433 H 57.33048205131519 90.62855983917683 3.6367144079574842 H 0.0 **** 0.06
29434 H 57.535637839228286 92.32019605276548 3.119666017597294 H 0.0 **** 0.06
29435 H 58.455366705013944 91.6969731381846 4.5107238696675935 H 0.0 **** 0.06
29436 C 54.65325405947553 31.466618142905105 97.23533529232465 C 0.0 **** -0.24
29437 H 55.28184643044389 32.22279339976447 96.764223463829 H 0.0 **** 0.06
29438 H 54.33873179860464 31.816049929714183 98.21855544303453 H 0.0 **** 0.06
29439 H 55.21884188203933 30.54078939737505 97.34330882616366 H 0.0 **** 0.06
29440 H 53.77589816378699 31.286076085898486 96.61491054495406 H 0.0 **** 0.06
29441 C 64.66969811357511 3.4500756923571734 44.85643794650966 C 0.0 **** -0.24
29442 H 65.72344325409567 3.704564723204763 44.96965549282504 H 0.0 **** 0.06
29443 H 64.17804385194849 3.4927186594316373 45.828741607484936 H 0.0 **** 0.06
29444 H 64.58131405310186 2.442906616273814 44.447875265424166 H 0.0 **** 0.06
29445 H 64.19515114061603 4.159294710425073 44.17757543808968 H 0.0 **** 0.06
29446 C 95.96514250115486 4.678695044180344 49.578693419282054 C 0.0 **** -0.24
29447 H 96.76069345561017 4.168918917599228 49.03660244964737 H 0.0 **** 0.06
29448 H 96.4027497508794 5.388445225267745 50.281838037634664 H 0.0 **** 0.06
29449 H 95.3705931958923 3.9466787908090595 50.124084082144385 H 0.0 **** 0.06
29450 H 95.32785463302895 5.212159805625333 48.87374291814597 H 0.0 **** 0.06
29451 C 24.71337387100087 93.33652627109807 97.03290948333844 C 0.0 **** -0.24
29452 H 24.153190854826022 94.0704659539288 96.45565119887593 H 0.0 **** 0.06
29453 H 24.469119321765987 92.33428490054932 96.680851736433 H 0.0 **** 0.06
29454 H 24.45143570915053 93.42605914520858 98.0866323683824 H 0.0 **** 0.06
29455 H 25.78196453909399 93.51464645381391 96.90768190354547 H 0.0 **** 0.06
29456 C 77.90994424283934 71.32922940379552 53.73001217137582 C 0.0 **** -0.24
29457 H 76.96355112260926 71.72497224787584 54.097343533047216 H 0.0 **** 0.06
29458 H 78.58539106761793 71.16472190328935 54.57014646013248 H 0.0 **** 0.06
29459 H 78.35805090038389 72.04285476332942 53.03837426628849 H 0.0 **** 0.06
29460 H 77.73447546320767 70.38528063127757 53.21532773772296 H 0.0 **** 0.06
29461 C 103.06088976604356 65.87573749063321 89.14597505652648 C 0.0 **** -0.24
29462 H 102.43420592501549 66.32878971592703 88.37737842584097 H 0.0 **** 0.06
29463 H 102.80041111600082 66.29337333789508 90.11894161168259 H 0.0 **** 0.06
29464 H 104.10844404647693 66.08199416314079 88.92891314745779 H 0.0 **** 0.06
29465 H 102.8984387288523 64.79772786141598 89.15787596817903 H 0.0 **** 0.06
29466 C 69.22583809553532 37.95094298154868 36.89631185623057 C 0.0 **** -0.24
29467 H 69.00566528425796 38.88230151287365 36.37375280058039 H 0.0 **** 0.06
29468 H 69.62231457844871 37.22310266034634 36.18881588828758 H 0.0 **** 0.06
29469 H 68.31278168713561 37.56232985283441 37.34576204685412 H 0.0 **** 0.06
29470 H 69.96382647154437 38.139485790314836 37.67615125228511 H 0.0 **** 0.06
29471 C 82.70820370037148 99.36509703443232 56.25088147124009 C 0.0 **** -0.24
29472 H 82.3999365190229 98.74333303406793 57.09147684680349 H 0.0 **** 0.06
29473 H 83.7479015853404 99.1511436869817 56.00335576263063 H 0.0 **** 0.06
29474 H 82.60839211441106 100.41631314492005 56.52074075238002 H 0.0 **** 0.06
29475 H 82.07706582277348 99.14946254815058 55.38881856769058 H 0.0 **** 0.06
29476 C 46.4529723215644 81.40757046345931 15.620120322269628 C 0.0 **** -0.24
29477 H 45.53959554399809 80.87096902805101 15.879017059813094 H 0.0 **** 0.06
29478 H 46.80539602915489 81.96422658503852 16.488099106642665 H 0.0 **** 0.06
29479 H 46.247827188791085 82.09997703331112 14.803154984859432 H 0.0 **** 0.06
29480 H 47.21658591894722 80.69499119424509 15.30886359498841 H 0.0 **** 0.06
29481 C 101.75879918458291 69.08676081824274 68.8096269263678 C 0.0 **** -0.24
29482 H 102.63508328882214 69.31446431506657 69.41814404326725 H 0.0 **** 0.06
29483 H 101.2405475119474 68.22426097237889 69.2283689885951 H 0.0 **** 0.06
29484 H 102.0731104509589 68.86372364220381 67.79057123457615 H 0.0 **** 0.06
29485 H 101.0887825722504 69.94641339556819 68.80372047320502 H 0.0 **** 0.06
29486 C 31.48733519207508 98.20812498554888 62.53170321894487 C 0.0 **** -0.24
29487 H 31.613825623369678 97.47924026504823 61.7312358938691 H 0.0 **** 0.06
29488 H 31.842342420846194 97.78287920507148 63.470487861222466 H 0.0 **** 0.06
29489 H 30.431412890184333 98.46427379250855 62.62549366190416 H 0.0 **** 0.06
29490 H 32.06025085975574 99.10570448514716 62.298846209276974 H 0.0 **** 0.06
29491 C 44.157928132701215 41.656011376326745 48.3572594372194 C 0.0 **** -0.24
29492 H 43.10033507772815 41.820076927767104 48.15346768277544 H 0.0 **** 0.06
29493 H 44.4520032438447 42.228298948748346 49.237192661220774 H 0.0 **** 0.06
29494 H 44.747188065504474 41.980391041080495 47.49861087887518 H 0.0 **** 0.06
29495 H 44.332918088221305 40.59584983506569 48.536913746983544 H 0.0 **** 0.06
29496 C 23.484685145753105 49.225359364293425 96.47287205325034 C 0.0 **** -0.24
29497 H 24.271229339948107 48.61235127763084 96.03267774603802 H 0.0 **** 0.06
29498 H 23.91163443264999 50.16523948856569 96.82459982323161 H 0.0 **** 0.06
29499 H 23.036724650817163 48.69304774961178 97.31177158961873 H 0.0 **** 0.06
29500 H 22.721595366940406 49.430974792193034 95.72242953299099 H 0.0 **** 0.06
29501 C 80.9441158244971 15.82179862488617 67.36563623743675 C 0.0 **** -0.24
29502 H 80.72151979531604 16.863685728107214 67.5921818196932 H 0.0 **** 0.06
29503 H 81.9037243213619 15.551228556866775 67.8056681215862 H 0.0 **** 0.06
29504 H 80.98876769364927 15.687422501959901 66.28406975529398 H 0.0 **** 0.06
29505 H 80.16207898209005 15.184682041713344 67.7784273883976 H 0.0 **** 0.06
29506 C 63.461721390967 80.55622185852243 66.47983632577737 C 0.0 **** -0.24
29507 H 62.949495615255046 81.49149128768448 66.70539906942896 H 0.0 **** 0.06
29508 H 62.75451591940191 79.72946616826937 66.55068252295693 H 0.0 **** 0.06
29509 H 64.27198364054811 80.40419256114555 67.1921051195052 H 0.0 **** 0.06
29510 H 63.86902495672848 80.59995785235006 65.46994541267036 H 0.0 **** 0.06
29511 C 76.7009965896186 39.73692620223028 58.26807463654228 C 0.0 **** -0.24
29512 H 77.02100107174684 40.291009518736246 59.15073002511588 H 0.0 **** 0.06
29513 H 75.83008553968213 39.13019438583524 58.51789496312921 H 0.0 **** 0.06
29514 H 77.51207506357575 39.08998794150082 57.93180039494683 H 0.0 **** 0.06
29515 H 76.44215255197865 40.43673041476825 57.473920052366964 H 0.0 **** 0.06
29516 C 71.9145248203158 97.00747947807658 58.05089478584276 C 0.0 **** -0.24
29517 H 71.6915578414656 97.12235910511446 56.989606343665876 H 0.0 **** 0.06
29518 H 71.29004385138067 96.21842144232608 58.469987435132985 H 0.0 **** 0.06
29519 H 71.71177089959264 97.94547919714836 58.5674439769873 H 0.0 **** 0.06
29520 H 72.96539770941517 96.74393381136123 58.17420172345622 H 0.0 **** 0.06
29521 C 66.63108368801517 9.852716223858748 9.885033947922096 C 0.0 **** -0.24
29522 H 66.64548029987293 10.935212807690652 9.759122949004166 H 0.0 **** 0.06
29523 H 65.92373494702281 9.415164068084366 9.180155517291212 H 0.0 **** 0.06
29524 H 66.32852256663125 9.60921336627598 10.903041703695152 H 0.0 **** 0.06
29525 H 67.62760065653032 9.452970178217322 9.696360279122246 H 0.0 **** 0.06
29526 C 85.42933468489376 29.642193350134974 88.1407952981429 C 0.0 **** -0.24
29527 H 84.79457095394062 28.760068501868744 88.05992847880874 H 0.0 **** 0.06
29528 H 86.14599417032703 29.65110006738965 87.31912286164632 H 0.0 **** 0.06
29529 H 85.96369010692833 29.619015596139214 89.0902012975139 H 0.0 **** 0.06
29530 H 84.81100436214766 30.538917694840016 88.09317390540245 H 0.0 **** 0.06
29531 C 51.33456715483942 89.64683489812752 22.88136010544804 C 0.0 **** -0.24
29532 H 50.46257369589745 89.92131372396068 23.47545312389485 H 0.0 **** 0.06
29533 H 52.21325676756766 90.16799987694847 23.2637086628078 H 0.0 **** 0.06
29534 H 51.168479501249635 89.92695706067599 21.842128620940116 H 0.0 **** 0.06
29535 H 51.49276305143496 88.56984212597403 22.947476593061083 H 0.0 **** 0.06
29536 C 22.633641178298518 34.43088932379246 53.45344090924419 C 0.0 **** -0.24
29537 H 23.147227377991186 34.58244300788709 54.40299944736705 H 0.0 **** 0.06
29538 H 21.855088492819988 35.185585658297214 53.33818073825205 H 0.0 **** 0.06
29539 H 22.18345251889457 33.43823572601707 53.438959217380216 H 0.0 **** 0.06
29540 H 23.347688377177363 34.518728326861606 52.63493276118777 H 0.0 **** 0.06
29541 C 0.06960214510061569 49.106075055198545 17.570424569100055 C 0.0 **** -0.24
29542 H 0.33780512396590234 49.505899225259896 18.5486390290975 H 0.0 **** 0.06
29543 H -0.9483735035170477 48.71785310308829 17.60299755870338 H 0.0 **** 0.06
29544 H 0.7574374272466784 48.30281313323002 17.30552338784284 H 0.0 **** 0.06
29545 H 0.13244308254945247 49.89918769156526 16.82480797354839 H 0.0 **** 0.06
29546 C 1.2572191723561588 90.76772114249431 53.328100953278266 C 0.0 **** -0.24
29547 H 1.954887917531778 91.10828885224593 52.56216118820933 H 0.0 **** 0.06
29548 H 1.7810975258986872 90.12776315851733 54.03780789081474 H 0.0 **** 0.06
29549 H 0.44990049389849673 90.20632767033037 52.85840040781501 H 0.0 **** 0.06
29550 H 0.843840752256142 91.63044759408731 53.851912107941274 H 0.0 **** 0.06
29551 C 84.25415150206666 13.059724386088277 103.99461308563733 C 0.0 **** -0.24
29552 H 83.5862158115387 12.204509051698638 104.09423899930906 H 0.0 **** 0.06
29553 H 84.04389668671925 13.779367578423386 104.78675597920162 H 0.0 **** 0.06
29554 H 84.09847466743511 13.530867126409571 103.0247265495571 H 0.0 **** 0.06
29555 H 85.28775861812031 12.723935097837078 104.07494094754657 H 0.0 **** 0.06
29556 C 77.89487516976581 50.29727114611224 19.232924782219783 C 0.0 **** -0.24
29557 H 78.34104369045001 51.28255868291486 19.098586332278046 H 0.0 **** 0.06
29558 H 77.33943361987012 50.2755794542576 20.170743464190167 H 0.0 **** 0.06
29559 H 78.68134525874389 49.54297008386934 19.258032857417163 H 0.0 **** 0.06
29560 H 77.217487325534 50.08937456229828 18.404243023163303 H 0.0 **** 0.06
29561 C 99.04057418749693 23.888092281238272 66.02790170921276 C 0.0 **** -0.24
29562 H 99.85276698908376 23.499038850194125 66.64248776280502 H 0.0 **** 0.06
29563 H 98.69493184234852 23.108766474817855 65.34759116634166 H 0.0 **** 0.06
29564 H 99.39890710802689 24.74093761192114 65.45078118444573 H 0.0 **** 0.06
29565 H 98.21795359433952 24.202128403810065 66.66994871306449 H 0.0 **** 0.06
29566 C 57.00455163594381 54.99867743762353 53.78889466901471 C 0.0 **** -0.24
29567 H 57.337277241813126 55.69126123601248 54.56247471853245 H 0.0 **** 0.06
29568 H 57.4916005294898 55.24631248142333 52.84487610897387 H 0.0 **** 0.06
29569 H 55.92383767810992 55.07693833941949 53.671773939731494 H 0.0 **** 0.06
29570 H 57.26704041983271 53.98093576931414 54.07668837210065 H 0.0 **** 0.06
29571 C 96.23128046724446 26.879929944247753 44.34810645564036 C 0.0 **** -0.24
29572 H 95.41280121895358 27.497418673038947 44.71736933222401 H 0.0 **** 0.06
29573 H 96.69001589221816 27.36369799171347 43.48461292066313 H 0.0 **** 0.06
29574 H 95.84654566031637 25.90278281798403 44.05474257587479 H 0.0 **** 0.06
29575 H 96.97604009144104 26.756257074456933 45.134385563242084 H 0.0 **** 0.06
29576 C 69.97300326019342 53.79292844925936 30.721044370405608 C 0.0 **** -0.24
29577 H 69.42650857673135 54.47940929335047 30.073340441001136 H 0.0 **** 0.06
29578 H 70.40788714444852 52.9946943847117 30.119791446038903 H 0.0 **** 0.06
29579 H 69.2883166618036 53.36479336331536 31.454055541683488 H 0.0 **** 0.06
29580 H 70.76539740894026 54.33414158931923 31.236888825408144 H 0.0 **** 0.06
29581 C 77.04915598655552 38.23995433674341 28.14769215857433 C 0.0 **** -0.24
29582 H 76.66166929875712 38.55533545983377 27.179892884039333 H 0.0 **** 0.06
29583 H 77.68198043031444 37.36101794178083 28.016941113228086 H 0.0 **** 0.06
29584 H 76.21904257671989 37.995207914263716 28.810048259509358 H 0.0 **** 0.06
29585 H 77.6360582146738 39.04793448914734 28.585058797688703 H 0.0 **** 0.06
29586 C 19.919109531569575 50.36057772979706 70.11136545635395 C 0.0 **** -0.24
29587 H 18.83097140328175 50.405031743095776 70.16873284620141 H 0.0 **** 0.06
29588 H 20.24862455213656 49.33083694943468 70.25182367112393 H 0.0 **** 0.06
29589 H 20.350255400978313 50.99035582536959 70.88992343271501 H 0.0 **** 0.06
29590 H 20.24462504519346 50.71690409752921 69.13428672118602 H 0.0 **** 0.06
29591 C 89.45019789976894 16.740825648474186 1.5561382131372454 C 0.0 **** -0.24
29592 H 88.3622129998198 16.684275181779697 1.6003608834171814 H 0.0 **** 0.06
29593 H 89.84028591478449 16.989302201217754 2.5433051010550685 H 0.0 **** 0.06
29594 H 89.74524326638658 17.511474124042763 0.8448107130543008 H 0.0 **** 0.06
29595 H 89.85118752262773 15.778704177127395 1.2381566412387315 H 0.0 **** 0.06
29596 C 99.32799101214025 3.8821470527934423 96.28541464498107 C 0.0 **** -0.24
29597 H 100.05186639599711 4.5405890552293044 96.76661035448706 H 0.0 **** 0.06
29598 H 99.37373621132419 4.020773245967689 95.20452106399529 H 0.0 **** 0.06
29599 H 98.32581415194578 4.123839948833989 96.64022701525062 H 0.0 **** 0.06
29600 H 99.56046706077437 2.8461595363645813 96.52975131811422 H 0.0 **** 0.06
29601 C 83.96019725041441 0.27035833777830476 51.907820157563336 C 0.0 **** -0.24
29602 H 83.85794589338141 0.7328291944380965 50.92574016752467 H 0.0 **** 0.06
29603 H 84.43336739849906 -0.7061971439188994 51.80197999818597 H 0.0 **** 0.06
29604 H 82.97428458780217 0.150716194266721 52.35664826701115 H 0.0 **** 0.06
29605 H 84.57504184754634 0.9055576389168323 52.54496036731207 H 0.0 **** 0.06
29606 C 39.7117384809099 64.62124572742636 104.21900269819744 C 0.0 **** -0.24
29607 H 40.45383662257518 65.40634485314615 104.36530866630943 H 0.0 **** 0.06
29608 H 39.524812894884946 64.11747099903693 105.16754240319139 H 0.0 **** 0.06
29609 H 40.08517351273596 63.90036222500174 103.4917758045618 H 0.0 **** 0.06
29610 H 38.78481899335446 65.0619786679236 103.85271534856926 H 0.0 **** 0.06
29611 C 30.944643699950035 102.60653502496902 33.77140079709466 C 0.0 **** -0.24
29612 H 29.987020651291402 102.5060586933707 34.28347634677462 H 0.0 **** 0.06
29613 H 31.14080277004868 103.65965471414572 33.572742305699165 H 0.0 **** 0.06
29614 H 30.911340615332136 102.05769943810171 32.83000654857676 H 0.0 **** 0.06
29615 H 31.73753278772861 102.20050352861986 34.40096819461428 H 0.0 **** 0.06
29616 C 38.1410248474492 5.856582885411683 103.96176710119664 C 0.0 **** -0.24
29617 H 38.9248305350626 5.1819905107683155 104.30589421109251 H 0.0 **** 0.06
29618 H 38.467601402573905 6.888922114065224 104.09032531675682 H 0.0 **** 0.06
29619 H 37.23470188562622 5.687650305553106 104.54377071506035 H 0.0 **** 0.06
29620 H 37.93704747505382 5.6687750755811805 102.90806831977392 H 0.0 **** 0.06
29621 C 99.1815146042643 46.75747306099291 21.23207697398766 C 0.0 **** -0.24
29622 H 99.67713983464682 46.196035218005164 20.440254472010935 H 0.0 **** 0.06
29623 H 98.36387385098936 47.340314199079074 20.80663536105004 H 0.0 **** 0.06
29624 H 99.89811777024792 47.4271326661075 21.705477998046916 H 0.0 **** 0.06
29625 H 98.78485187059431 46.063996963171235 21.974245640156994 H 0.0 **** 0.06
29626 C 47.327072702998265 59.49609057631491 102.0126311228945 C 0.0 **** -0.24
29627 H 48.18062103405394 59.79854440022693 101.40661495125568 H 0.0 **** 0.06
29628 H 47.54692608418966 58.547394479151066 102.50330612756244 H 0.0 **** 0.06
29629 H 46.451465227249045 59.38172823452065 101.37456493910969 H 0.0 **** 0.06
29630 H 47.12952136199896 60.25831002563619 102.76756606727429 H 0.0 **** 0.06
29631 C 87.12831584906773 61.31554141127934 105.55375718899145 C 0.0 **** -0.24
29632 H 86.18449633095634 60.784675939119694 105.43109809012763 H 0.0 **** 0.06
29633 H 87.84447386299047 60.95893992314289 104.81336149004537 H 0.0 **** 0.06
29634 H 87.51943482916927 61.13581345042334 106.55488879117497 H 0.0 **** 0.06
29635 H 86.96343919591061 62.384960188675635 105.41466020436964 H 0.0 **** 0.06
29636 C 47.40890202654424 39.03153645286581 50.595860485429114 C 0.0 **** -0.24
29637 H 48.15253270664692 39.71857369997656 50.99900551357976 H 0.0 **** 0.06
29638 H 47.38171979448907 39.12214228217529 49.50958821035667 H 0.0 **** 0.06
29639 H 46.4284256268964 39.27627984217105 51.005991527919974 H 0.0 **** 0.06
29640 H 47.67289023330443 38.00998765074999 50.86999547523055 H 0.0 **** 0.06
29641 C 31.69722927508171 56.12353092418056 33.96804148270064 C 0.0 **** -0.24
29642 H 31.595497646544835 57.20786118476917 33.938137988735605 H 0.0 **** 0.06
29643 H 31.47190593187249 55.765627831171116 34.97305964783058 H 0.0 **** 0.06
29644 H 32.71852516238524 55.847537875040246 33.70514556179978 H 0.0 **** 0.06
29645 H 31.004355747281124 55.67340227290265 33.25756548048989 H 0.0 **** 0.06
29646 C 62.185622455481095 18.93980302525634 74.4738173870064 C 0.0 **** -0.24
29647 H 62.187362960907535 18.083272785851875 75.14726046854996 H 0.0 **** 0.06
29648 H 62.57679720153 18.638946708108193 73.50195705800233 H 0.0 **** 0.06
29649 H 62.81166596971501 19.729438994104697 74.88941486735371 H 0.0 **** 0.06
29650 H 61.16596126341895 19.307892531366605 74.35726307550483 H 0.0 **** 0.06
29651 C 66.87770253666731 96.79492455194809 99.02853828141802 C 0.0 **** -0.24
29652 H 66.43359753529352 97.7706855378064 99.22580196375847 H 0.0 **** 0.06
29653 H 67.10197428773675 96.70578943109149 97.96605450569037 H 0.0 **** 0.06
29654 H 66.1766837456427 96.01241442547808 99.31940642239947 H 0.0 **** 0.06
29655 H 67.79734258737462 96.69213137566335 99.60422520126738 H 0.0 **** 0.06
29656 C 1.1066341695297552 1.9253928847359987 105.25686759852309 C 0.0 **** -0.24
29657 H 0.1082202247984867 2.345423041787143 105.13349423578323 H 0.0 **** 0.06
29658 H 1.8519008699300343 2.70131696037717 105.08106061753877 H 0.0 **** 0.06
29659 H 1.250416587830557 1.114330692500502 104.54370955352539 H 0.0 **** 0.06
29660 H 1.2151842676988451 1.5406760620958977 106.27128101675544 H 0.0 **** 0.06
29661 C 78.1488368970831 73.7700276560042 18.012213421498217 C 0.0 **** -0.24
29662 H 78.47940776649153 72.83723909142475 18.469913253561714 H 0.0 **** 0.06
29663 H 78.33555185487512 74.59726157156666 18.697679193070485 H 0.0 **** 0.06
29664 H 77.08197100179046 73.70964214888218 17.797307730340208 H 0.0 **** 0.06
29665 H 78.6972644148193 73.9345852653341 17.08561497472445 H 0.0 **** 0.06
29666 C 24.65619225881511 97.5517224388642 68.92521938607985 C 0.0 **** -0.24
29667 H 25.21389756445251 96.7521218369419 68.4371831184444 H 0.0 **** 0.06
29668 H 23.653964664681894 97.60521219744363 68.50184327441912 H 0.0 **** 0.06
29669 H 25.16977968241008 98.50089362440221 68.7671630709101 H 0.0 **** 0.06
29670 H 24.590631432329815 97.34770586470891 69.99379025748429 H 0.0 **** 0.06
29671 C 5.482998012621408 2.8824943070528377 103.11405480518386 C 0.0 **** -0.24
29672 H 4.396045315628498 2.8129271637604063 103.16304441754426 H 0.0 **** 0.06
29673 H 5.9011415274407 1.894183650955739 102.9205663081492 H 0.0 **** 0.06
29674 H 5.865984498546425 3.260715878957086 104.06216900012973 H 0.0 **** 0.06
29675 H 5.767454844979511 3.561090842127669 102.3103317638973 H 0.0 **** 0.06
29676 C 32.51383438227495 88.41480635085009 84.40311205218568 C 0.0 **** -0.24
29677 H 33.172604622512864 88.41382885659266 85.27216301398757 H 0.0 **** 0.06
29678 H 32.773720499877925 87.58133434183927 83.74991425724697 H 0.0 **** 0.06
29679 H 32.63019604693787 89.35272239621825 83.86043614092542 H 0.0 **** 0.06
29680 H 31.48023065723399 88.31053884820015 84.73147052283588 H 0.0 **** 0.06
29681 C 74.71188039786529 62.031923117665286 44.15579003576798 C 0.0 **** -0.24
29682 H 75.53601301963732 61.643026368905424 44.75474203498037 H 0.0 **** 0.06
29683 H 74.4105883161755 61.28335709377157 43.42335323089655 H 0.0 **** 0.06
29684 H 75.03368839652398 62.93730942127621 43.6403048252366 H 0.0 **** 0.06
29685 H 73.86834500187268 62.264961924268874 44.80671839205339 H 0.0 **** 0.06
29686 C 20.311243575783067 31.92147783197673 43.22395008729697 C 0.0 **** -0.24
29687 H 21.22176053023668 32.510967367056445 43.33393506584068 H 0.0 **** 0.06
29688 H 19.603614442762876 32.460062910860024 42.594398829489506 H 0.0 **** 0.06
29689 H 19.868161785986473 31.751983681872517 44.20607789873182 H 0.0 **** 0.06
29690 H 20.552000870364026 30.963390617032154 42.764619634761374 H 0.0 **** 0.06
29691 C 89.37709262844108 29.224802021438848 57.38559774523185 C 0.0 **** -0.24
29692 H 89.6026688493308 30.287112385954657 57.4804280045954 H 0.0 **** 0.06
29693 H 88.8783968460646 29.0431384292705 56.4334945115092 H 0.0 **** 0.06
29694 H 88.72411969575181 28.918029040471083 58.203080115011986 H 0.0 **** 0.06
29695 H 90.3037662997283 28.651839766936234 57.42734578791411 H 0.0 **** 0.06
29696 C 65.33562260882962 50.95786303852924 0.9222614550350414 C 0.0 **** -0.24
29697 H 66.28099392000773 50.74973524057728 1.4230174805539972 H 0.0 **** 0.06
29698 H 65.0161203453371 50.07438069310385 0.3686162579532297 H 0.0 **** 0.06
29699 H 65.46525028294066 51.79292821504697 0.23349840136162126 H 0.0 **** 0.06
29700 H 64.5804512082117 51.213497896007596 1.6661644897553902 H 0.0 **** 0.06
29701 C 59.981698310321406 76.49187810111671 13.842502562439961 C 0.0 **** -0.24
29702 H 59.11199299453392 77.02615052114147 14.226155262913892 H 0.0 **** 0.06
29703 H 59.926632511220475 75.44545555603986 14.14444357118785 H 0.0 **** 0.06
29704 H 60.889792701739395 76.93994451871554 14.244529575629855 H 0.0 **** 0.06
29705 H 59.99559290793428 76.55632912502507 12.754527971804634 H 0.0 **** 0.06
29706 C 34.657758838653706 100.56741102350657 4.176684036791443 C 0.0 **** -0.24
29707 H 34.146634809529274 99.95436348360465 3.4345845600364555 H 0.0 **** 0.06
29708 H 35.68598450946101 100.74258232445163 3.856846905745982 H 0.0 **** 0.06
29709 H 34.659184372717476 100.05097842109456 5.136581449293317 H 0.0 **** 0.06
29710 H 34.1414626189663 101.52186796278158 4.278756881930889 H 0.0 **** 0.06
29711 C 51.67651512017787 57.928803017748436 50.94961022897027 C 0.0 **** -0.24
29712 H 52.400408576251834 58.66707490535796 51.29196750925924 H 0.0 **** 0.06
29713 H 52.14217382581273 57.27992225310542 50.206912111254184 H 0.0 **** 0.06
29714 H 50.82208246659934 58.436401208008654 50.50282102865577 H 0.0 **** 0.06
29715 H 51.340500429134636 57.32963891347158 51.79605527931892 H 0.0 **** 0.06
29716 C 58.0446698156627 67.29788261556257 14.828008800251382 C 0.0 **** -0.24
29717 H 59.12411162725478 67.45169801954631 14.787784264823358 H 0.0 **** 0.06
29718 H 57.831224294187315 66.36201772656693 15.345298532487277 H 0.0 **** 0.06
29719 H 57.6463432633221 67.25318528773909 13.81488996892449 H 0.0 **** 0.06
29720 H 57.58042993192788 68.1245442643696 15.365555583461457 H 0.0 **** 0.06
29721 C 60.034404989681434 2.196781570201324 97.72445489729813 C 0.0 **** -0.24
29722 H 60.26633053233596 2.819351704972121 96.8602664445108 H 0.0 **** 0.06
29723 H 60.2872176574553 1.1594433807470637 97.50193297171379 H 0.0 **** 0.06
29724 H 58.97090938798797 2.2711990968297187 97.9508413606461 H 0.0 **** 0.06
29725 H 60.614193405150246 2.5359915941116355 98.58287184727905 H 0.0 **** 0.06
29726 C 32.54656953642492 96.7492607707972 82.52074033297266 C 0.0 **** -0.24
29727 H 33.52778650309248 97.11882990448879 82.8169709556414 H 0.0 **** 0.06
29728 H 32.66610865535194 95.91922296301613 81.82406798021606 H 0.0 **** 0.06
29729 H 31.987663625327514 97.55115594277527 82.03807270847987 H 0.0 **** 0.06
29730 H 32.00444838440741 96.40904335805573 83.4031679424494 H 0.0 **** 0.06
29731 C 25.98911825660238 87.74433465567873 67.454443845644 C 0.0 **** -0.24
29732 H 25.742133600860825 86.95577728121808 66.7441935261138 H 0.0 **** 0.06
29733 H 25.29264651177121 87.71042115866868 68.29240309541746 H 0.0 **** 0.06
29734 H 25.917463053830545 88.71314720964092 66.96016409508931 H 0.0 **** 0.06
29735 H 27.00554033229264 87.59808857208255 67.8192053143249 H 0.0 **** 0.06
29736 C 47.06113928547646 12.847188304406615 106.6990275363333 C 0.0 **** -0.24
29737 H 48.054521205636036 13.252798650255528 106.50172468673658 H 0.0 **** 0.06
29738 H 46.36845335762109 13.665360636825682 106.8963114658418 H 0.0 **** 0.06
29739 H 47.104074922869984 12.18958084514928 107.56683202720173 H 0.0 **** 0.06
29740 H 46.721231642215315 12.283037443442097 105.83105561002758 H 0.0 **** 0.06
29741 C 82.40660250509353 6.820431111893157 62.41193834703063 C 0.0 **** -0.24
29742 H 81.69577964058783 6.948646678130672 61.59521418257634 H 0.0 **** 0.06
29743 H 82.2919778973909 5.823923200556806 62.83901786007169 H 0.0 **** 0.06
29744 H 82.21490034486163 7.5693093706880745 63.17977446121563 H 0.0 **** 0.06
29745 H 83.4210349020114 6.939930550742233 62.03184692305135 H 0.0 **** 0.06
29746 C 0.7005144207286556 102.36138439456273 15.791898671151387 C 0.0 **** -0.24
29747 H 0.5302483994652549 102.72071346632764 14.77731660004676 H 0.0 **** 0.06
29748 H 0.03407095776996805 102.88303847903755 16.478174704973355 H 0.0 **** 0.06
29749 H 1.7354930104174748 102.54958284232781 16.075892211984154 H 0.0 **** 0.06
29750 H 0.5017638879243576 101.29043026434866 15.834935781857439 H 0.0 **** 0.06
29751 C 37.65416417647174 98.62674319193523 27.22009384039228 C 0.0 **** -0.24
29752 H 37.04203159410309 99.08459069174586 27.997848382540838 H 0.0 **** 0.06
29753 H 37.29938784687036 98.95132914251101 26.240973568605284 H 0.0 **** 0.06
29754 H 37.5802694515605 97.54199707822896 27.292108489585388 H 0.0 **** 0.06
29755 H 38.693033088603755 98.93055142649234 27.34958769025957 H 0.0 **** 0.06
29756 C 52.855845637211374 96.93965729472914 11.4224620112021 C 0.0 **** -0.24
29757 H 53.91017274074194 96.78209191877427 11.651440729388383 H 0.0 **** 0.06
29758 H 52.76522608151672 97.66052475328263 10.609845917716285 H 0.0 **** 0.06
29759 H 52.34557411146326 97.32172163511304 12.3061641551391 H 0.0 **** 0.06
29760 H 52.404610254509365 95.993398680886 11.121796028750879 H 0.0 **** 0.06
29761 C 3.8180303822989003 1.6953312971479875 39.762604525745616 C 0.0 **** -0.24
29762 H 4.23893927786429 2.1562835012230153 38.86973924096122 H 0.0 **** 0.06
29763 H 4.3489225132207 2.0574406337289872 40.64253068243474 H 0.0 **** 0.06
29764 H 3.9198550980117233 0.6124727328291897 39.69568865920829 H 0.0 **** 0.06
29765 H 2.7626790324383705 1.9563718219856412 39.841769438304254 H 0.0 **** 0.06
29766 C 41.5598477162049 63.27630760196584 27.904475164047632 C 0.0 **** -0.24
29767 H 41.513467683512545 62.34203232323948 28.46411371584312 H 0.0 **** 0.06
29768 H 41.868682534074935 63.070781544233455 26.880468955605853 H 0.0 **** 0.06
29769 H 42.281261652357955 63.945448636017545 28.375550538598635 H 0.0 **** 0.06
29770 H 40.576658441401094 63.747802901517446 27.90187134198098 H 0.0 **** 0.06
29771 C 100.40877282245064 44.28595766198882 59.982110068352995 C 0.0 **** -0.24
29772 H 100.38183518554601 45.18245484647369 60.60122463958152 H 0.0 **** 0.06
29773 H 101.43951017838918 43.94464667061905 59.88295843176434 H 0.0 **** 0.06
29774 H 100.00390486380276 44.51290094013399 58.996372605507474 H 0.0 **** 0.06
29775 H 99.81025031841224 43.50319573525559 60.449081509844234 H 0.0 **** 0.06
29776 C 58.906157809175625 75.42239276377556 61.641237806594575 C 0.0 **** -0.24
29777 H 58.94235928591803 74.39113425103112 61.992646470406186 H 0.0 **** 0.06
29778 H 58.00237864435866 75.90277076467147 62.0162763523594 H 0.0 **** 0.06
29779 H 58.89994609850322 75.43420837029849 60.55164775510292 H 0.0 **** 0.06
29780 H 59.78214872380977 75.9597885141036 62.004986963424415 H 0.0 **** 0.06
29781 C 57.47234795211335 92.34223670365242 106.69206329766698 C 0.0 **** -0.24
29782 H 57.36209450392778 93.34283962164233 107.11053396845693 H 0.0 **** 0.06
29783 H 58.04726723478228 92.39704269415836 105.76761760936631 H 0.0 **** 0.06
29784 H 56.48752909364117 91.9242159845623 106.48438521752479 H 0.0 **** 0.06
29785 H 57.99349965278725 91.70603436764907 107.4076128849392 H 0.0 **** 0.06
29786 C 94.18504314519271 97.26357686642561 12.706090399162349 C 0.0 **** -0.24
29787 H 93.36020811024173 97.97561737742537 12.687592712946923 H 0.0 **** 0.06
29788 H 95.11782222744017 97.78229334401138 12.483928014493472 H 0.0 **** 0.06
29789 H 94.01318912489148 96.48799888160208 11.958782726328877 H 0.0 **** 0.06
29790 H 94.24977697354569 96.80790001205744 13.69432916536448 H 0.0 **** 0.06
29791 C 3.1362533155172274 65.61949255836882 106.59384720397728 C 0.0 **** -0.24
29792 H 3.6049527985806504 64.67246556468162 106.3246829123616 H 0.0 **** 0.06
29793 H 2.2297790696550948 65.75639572957276 106.00542677187366 H 0.0 **** 0.06
29794 H 3.8276479742903478 66.43780944757042 106.39206114146663 H 0.0 **** 0.06
29795 H 2.8838172332264573 65.611373981246 107.65398813860699 H 0.0 **** 0.06
29796 C 48.63938390652936 61.825530059880236 71.92161325187686 C 0.0 **** -0.24
29797 H 49.00219970556324 61.57428370022052 72.91806779204455 H 0.0 **** 0.06
29798 H 48.31672500675566 62.8664480752428 71.9036238216288 H 0.0 **** 0.06
29799 H 47.79905722484517 61.179193907018885 71.66803218508215 H 0.0 **** 0.06
29800 H 49.44092108236504 61.68077174623795 71.19705482950428 H 0.0 **** 0.06
29801 C 72.91766303380273 69.2117387561862 45.972094684888646 C 0.0 **** -0.24
29802 H 73.0612999955752 68.16995284977645 46.257757476252664 H 0.0 **** 0.06
29803 H 73.73957626262622 69.52915849200352 45.33064628730784 H 0.0 **** 0.06
29804 H 72.89402454907913 69.83365155284267 46.86694741151456 H 0.0 **** 0.06
29805 H 71.97575132793042 69.31419213012191 45.43302756447969 H 0.0 **** 0.06
29806 C 101.16020994573584 95.58788649759632 105.43475578236361 C 0.0 **** -0.24
29807 H 101.19183464517336 96.35050048753347 106.21297457724786 H 0.0 **** 0.06
29808 H 101.30971127028256 94.60545976005966 105.8835450474537 H 0.0 **** 0.06
29809 H 101.94790139753468 95.77862536842225 104.7065494090635 H 0.0 **** 0.06
29810 H 100.19089385441073 95.61662169389017 104.93786115160528 H 0.0 **** 0.06
29811 C 57.12196934399762 103.95252795512583 42.202442457452634 C 0.0 **** -0.24
29812 H 57.242898383296705 103.33099113442442 43.089252933970016 H 0.0 **** 0.06
29813 H 56.06134497007708 104.13645637712368 42.030742176779796 H 0.0 **** 0.06
29814 H 57.546467804473735 103.44000911598042 41.338903097847805 H 0.0 **** 0.06
29815 H 57.63672330357801 104.90134507052296 42.351167421729116 H 0.0 **** 0.06
29816 C 106.91304815479177 87.10963086829462 86.02414336141409 C 0.0 **** -0.24
29817 H 107.43122679477398 87.83586611855068 86.65051782881554 H 0.0 **** 0.06
29818 H 107.2071942704543 86.102030875163 86.31910785948 H 0.0 **** 0.06
29819 H 107.18038437257098 87.27516773971792 84.9800238078804 H 0.0 **** 0.06
29820 H 105.83668556903501 87.22526457110885 86.14721281599913 H 0.0 **** 0.06
29821 C 40.70890484513728 87.51379822151975 105.01272925892846 C 0.0 **** -0.24
29822 H 40.371881023698506 88.41282907367314 104.49531719404014 H 0.0 **** 0.06
29823 H 40.348064731990064 86.63241118458322 104.48194112553823 H 0.0 **** 0.06
29824 H 40.316467198255566 87.5118697341633 106.02931799194721 H 0.0 **** 0.06
29825 H 41.797663541318514 87.4995705943816 105.04315475292286 H 0.0 **** 0.06
29826 C 32.21139673470006 66.96379378765403 80.3061913641082 C 0.0 **** -0.24
29827 H 31.79205854379117 67.69933741610191 79.62045182627014 H 0.0 **** 0.06
29828 H 32.671231043662715 66.15654580677798 79.73610030747108 H 0.0 **** 0.06
29829 H 31.418807505009013 66.55931822516703 80.93542702958376 H 0.0 **** 0.06
29830 H 32.965616325222655 67.44047751868294 80.9332600938186 H 0.0 **** 0.06
29831 C 69.87490352040638 83.76354322239513 98.51351151449256 C 0.0 **** -0.24
29832 H 70.09589247616086 83.78088182081706 97.44609970069803 H 0.0 **** 0.06
29833 H 70.8011181023709 83.88444575017974 99.07783231444745 H 0.0 **** 0.06
29834 H 69.4135641193887 82.81153035033469 98.77313833348383 H 0.0 **** 0.06
29835 H 69.19203091983442 84.57735066756055 98.75675243466956 H 0.0 **** 0.06
29836 C 59.16077454289052 68.72476518556303 64.50068835377675 C 0.0 **** -0.24
29837 H 59.92172174722447 69.48891199277632 64.34126210379523 H 0.0 **** 0.06
29838 H 58.822066685748666 68.34293565190795 63.5373815909856 H 0.0 **** 0.06
29839 H 58.3171972042573 69.15883405904556 65.03700372209607 H 0.0 **** 0.06
29840 H 59.58368221329658 67.90906610945427 65.08735933520956 H 0.0 **** 0.06
29841 C 28.630387415750562 37.65296425929654 12.743239838265595 C 0.0 **** -0.24
29842 H 28.858634263796347 37.92797021054151 13.77281246510151 H 0.0 **** 0.06
29843 H 27.563313481020742 37.77953786742124 12.560973448137531 H 0.0 **** 0.06
29844 H 28.907377823311734 36.61219453018185 12.574991812001286 H 0.0 **** 0.06
29845 H 29.19362824793764 38.29215510614062 12.062441345099643 H 0.0 **** 0.06
29846 C 46.37751352082009 62.497514574475204 77.21082412249118 C 0.0 **** -0.24
29847 H 45.81083347670733 62.430816889881754 76.28248214826846 H 0.0 **** 0.06
29848 H 46.63660749872696 63.539309417846596 77.40309108132323 H 0.0 **** 0.06
29849 H 47.289323633534394 61.90706532031092 77.12207901151282 H 0.0 **** 0.06
29850 H 45.774632026004326 62.114066291866024 78.03285875634958 H 0.0 **** 0.06
29851 C 52.79019895789534 23.325461657521117 94.42726300310751 C 0.0 **** -0.24
29852 H 53.02098775367273 22.340242510318376 94.83105926228639 H 0.0 **** 0.06
29853 H 51.70842035044899 23.452548873471983 94.37699741794994 H 0.0 **** 0.06
29854 H 53.21348850500166 23.41691319927449 93.42715487593861 H 0.0 **** 0.06
29855 H 53.2166173970686 24.091988057108807 95.07441778014605 H 0.0 **** 0.06
29856 C 51.08653747194203 53.07620915576274 18.5474182593823 C 0.0 **** -0.24
29857 H 52.1446499433026 53.13279146751512 18.29360709581829 H 0.0 **** 0.06
29858 H 50.85210391811742 53.831370307986276 19.298236006591633 H 0.0 **** 0.06
29859 H 50.8612654580634 52.086465777231695 18.94448156278123 H 0.0 **** 0.06
29860 H 50.48839742374084 53.25404210832323 17.654297560362732 H 0.0 **** 0.06
29861 C 93.05730545146764 78.81208549969404 2.8160430132285796 C 0.0 **** -0.24
29862 H 92.80275959617298 77.84216966126604 3.2450575227678655 H 0.0 **** 0.06
29863 H 92.51428261777589 79.59597132028603 3.343954868403756 H 0.0 **** 0.06
29864 H 92.78272957606764 78.82568507328722 1.7609203272674563 H 0.0 **** 0.06
29865 H 94.12928273737637 78.98241800288724 2.9154927049519017 H 0.0 **** 0.06
29866 C 41.781278357309105 34.46728262919683 101.84795793677321 C 0.0 **** -0.24
29867 H 42.18834010083114 35.47608515258926 101.77123136557043 H 0.0 **** 0.06
29868 H 42.07873994974719 33.88890091690914 100.97327404977119 H 0.0 **** 0.06
29869 H 40.69403265393393 34.516750153939284 101.8988932649129 H 0.0 **** 0.06
29870 H 42.166746979041875 33.98893603719122 102.74814745586218 H 0.0 **** 0.06
29871 C 7.243726182572715 15.731048763715535 63.43520072799265 C 0.0 **** -0.24
29872 H 7.129192655942177 16.214361079982098 64.40475006686506 H 0.0 **** 0.06
29873 H 6.342142710910679 15.161074611644892 63.20554331860393 H 0.0 **** 0.06
29874 H 8.101442310730533 15.059081057374101 63.46316763107444 H 0.0 **** 0.06
29875 H 7.4006041057045024 16.489046778000272 62.66787287860069 H 0.0 **** 0.06
29876 C 92.12939583447692 64.03853027540134 98.13326734636674 C 0.0 **** -0.24
29877 H 92.51221554399812 63.01852908313663 98.13614701963307 H 0.0 **** 0.06
29878 H 92.45854936028917 64.54698493078024 97.22715724379464 H 0.0 **** 0.06
29879 H 92.50607031533502 64.57111270352317 99.00664355953049 H 0.0 **** 0.06
29880 H 91.0393969145376 64.01785336335053 98.16290831506565 H 0.0 **** 0.06
29881 C 4.878072845864722 35.22386178946916 43.0671086368325 C 0.0 **** -0.24
29882 H 5.031498628244776 34.21051327466908 43.43752732172976 H 0.0 **** 0.06
29883 H 4.3831876100884415 35.18542087753062 42.09683053527536 H 0.0 **** 0.06
29884 H 5.842495811799893 35.72302282878045 42.96376749266565 H 0.0 **** 0.06
29885 H 4.256716311418188 35.77795376157087 43.7708343372133 H 0.0 **** 0.06
29886 C 99.88870524039095 97.65148983122623 98.54730839150918 C 0.0 **** -0.24
29887 H 99.03138277516967 97.92112481308499 97.92966130404307 H 0.0 **** 0.06
29888 H 100.64655916756027 97.17377906120106 97.92628620358353 H 0.0 **** 0.06
29889 H 99.57111574318131 96.96249872291367 99.32907805596197 H 0.0 **** 0.06
29890 H 100.30525747975095 98.55086011399561 99.00235354928421 H 0.0 **** 0.06
29891 C 102.55360718244077 45.24856602154631 63.391650147752514 C 0.0 **** -0.24
29892 H 103.16015016567002 45.621411274021284 62.56554616387447 H 0.0 **** 0.06
29893 H 103.19490535653757 44.742808170148805 64.1134051958783 H 0.0 **** 0.06
29894 H 101.81154654579521 44.54658582104315 63.00893145229314 H 0.0 **** 0.06
29895 H 102.04757523959525 46.08341427319567 63.876496285630594 H 0.0 **** 0.06
29896 C 32.33683144196462 16.871998519742935 7.196782681275835 C 0.0 **** -0.24
29897 H 32.37573493845764 17.778374311442075 6.592636055180336 H 0.0 **** 0.06
29898 H 33.31889291953178 16.683749869219373 7.6328371454006 H 0.0 **** 0.06
29899 H 32.04973609227048 16.028909553512882 6.569621704209439 H 0.0 **** 0.06
29900 H 31.603549963739994 16.99811465369399 7.9938584243092095 H 0.0 **** 0.06
29901 C 104.32123173175903 100.36428284065083 22.459043333258954 C 0.0 **** -0.24
29902 H 103.700154075669 99.46983858726215 22.42715808162384 H 0.0 **** 0.06
29903 H 104.45811061572671 100.67437338391557 23.4950422411738 H 0.0 **** 0.06
29904 H 103.8358938425096 101.16452809163475 21.900195960661165 H 0.0 **** 0.06
29905 H 105.29296764026758 100.14731465023331 22.013843487880877 H 0.0 **** 0.06
29906 C 94.35586878977463 53.40356068208066 1.8995750423432014 C 0.0 **** -0.24
29907 H 94.0486570943069 52.934525366069415 0.9646726045492642 H 0.0 **** 0.06
29908 H 94.45089216258167 54.47902777292816 1.7518835620680306 H 0.0 **** 0.06
29909 H 95.31643296717658 52.993529344362415 2.2125454893707115 H 0.0 **** 0.06
29910 H 93.60897989232318 53.20526576002562 2.6687511196751075 H 0.0 **** 0.06
29911 C 48.97928084796773 100.72975685050514 90.59630506594942 C 0.0 **** -0.24
29912 H 49.65878820391011 101.40579917012937 90.07836183245794 H 0.0 **** 0.06
29913 H 47.991738497381526 101.18544833051132 90.6592417857898 H 0.0 **** 0.06
29914 H 49.35540818855595 100.5357141264644 91.60009154131853 H 0.0 **** 0.06
29915 H 48.9121816695216 99.79063527529627 90.0458024419174 H 0.0 **** 0.06
29916 C 14.499043181421161 89.61571339697848 38.55446664496691 C 0.0 **** -0.24
29917 H 13.769107159574695 90.3529953809376 38.88686599988213 H 0.0 **** 0.06
29918 H 14.806602018751335 89.84417516629273 37.533280296561855 H 0.0 **** 0.06
29919 H 14.052364087257857 88.62228342182655 38.58625261469655 H 0.0 **** 0.06
29920 H 15.368933730123011 89.6449174453281 39.211449379995656 H 0.0 **** 0.06
29921 C 16.82820285806764 78.92604308868404 98.0814464984121 C 0.0 **** -0.24
29922 H 15.818935229672832 79.07350372715335 97.69631801506502 H 0.0 **** 0.06
29923 H 17.54314439740989 78.98793427099088 97.25986456696556 H 0.0 **** 0.06
29924 H 16.89805970385521 77.9449560700989 98.55115277605114 H 0.0 **** 0.06
29925 H 17.052437192793207 79.69846191133774 98.81723508336852 H 0.0 **** 0.06
29926 C 49.83434704914109 39.43842133855293 33.52429053803978 C 0.0 **** -0.24
29927 H 49.426002387908255 39.92877971888373 32.64020511454257 H 0.0 **** 0.06
29928 H 49.54304116985432 38.38858493269993 33.524039813114086 H 0.0 **** 0.06
29929 H 49.44679997976894 39.923371607904016 34.41988094809247 H 0.0 **** 0.06
29930 H 50.92140618261584 39.51474152367928 33.51170651967939 H 0.0 **** 0.06
29931 C 6.448236521728376 90.67633767516693 19.20691632105965 C 0.0 **** -0.24
29932 H 6.604958180027921 91.75412852714732 19.15577982684752 H 0.0 **** 0.06
29933 H 6.459876696549287 90.35692957447691 20.24866468141873 H 0.0 **** 0.06
29934 H 7.243246371535179 90.16734592201504 18.66158847534895 H 0.0 **** 0.06
29935 H 5.485289812789716 90.42873472955688 18.760843345962485 H 0.0 **** 0.06
29936 C 73.39973128564151 86.6068588130048 45.67025980603239 C 0.0 **** -0.24
29937 H 73.4086858730031 86.16376356112221 44.67413724997027 H 0.0 **** 0.06
29938 H 74.32101251399743 87.16728959434664 45.825365864861794 H 0.0 **** 0.06
29939 H 73.32263024931297 85.81722954057102 46.41830913100989 H 0.0 **** 0.06
29940 H 72.54538708356016 87.27753864125327 45.76059390355687 H 0.0 **** 0.06
29941 C 105.28137052110941 52.76043335075679 62.63579189154527 C 0.0 **** -0.24
29942 H 104.30124349896474 52.449116793253445 62.99871307157858 H 0.0 **** 0.06
29943 H 106.04892951407757 52.120514781112846 63.071246976749705 H 0.0 **** 0.06
29944 H 105.46340166143817 53.795390874868964 62.92518486094235 H 0.0 **** 0.06
29945 H 105.30982729326637 52.67513080781476 61.54949801031739 H 0.0 **** 0.06
29946 C 52.66710444621854 22.427237233728896 29.497702326069422 C 0.0 **** -0.24
29947 H 53.00767833235757 23.282759483573347 28.913681901616542 H 0.0 **** 0.06
29948 H 51.606486330864826 22.540046971062015 29.723817151564198 H 0.0 **** 0.06
29949 H 53.23377112611939 22.374071986948294 30.42721780741396 H 0.0 **** 0.06
29950 H 52.821248861550536 21.513024208721234 28.92538361679121 H 0.0 **** 0.06
29951 C 14.25583664320638 50.07933778983437 45.873349700730785 C 0.0 **** -0.24
29952 H 13.633024582814187 49.48888476452339 45.20155430222644 H 0.0 **** 0.06
29953 H 13.633011513596898 50.51866297387022 46.65384380021345 H 0.0 **** 0.06
29954 H 14.746117673520303 50.87266567784269 45.30976204364191 H 0.0 **** 0.06
29955 H 15.008970133363974 49.4373576291261 46.32834645542471 H 0.0 **** 0.06
29956 C 53.51705970847172 29.38767992223805 13.577478850284347 C 0.0 **** -0.24
29957 H 53.32152702700242 28.31567130602147 13.572170829227524 H 0.0 **** 0.06
29958 H 53.606592860946904 29.736131716908744 14.606916035393645 H 0.0 **** 0.06
29959 H 52.69500169219384 29.90947205536034 13.08742446612964 H 0.0 **** 0.06
29960 H 54.44546350975821 29.590172396225768 13.04399608473906 H 0.0 **** 0.06
29961 C 18.962757751252198 43.24500897622375 34.815642585950684 C 0.0 **** -0.24
29962 H 18.95945432358846 44.1045404584847 35.48474074895819 H 0.0 **** 0.06
29963 H 19.03603218426163 42.32837231882229 35.401810525093026 H 0.0 **** 0.06
29964 H 19.815719732141034 43.313830519978694 34.14063432452883 H 0.0 **** 0.06
29965 H 18.040834617236257 43.23247788547415 34.234822145510805 H 0.0 **** 0.06
29966 C 26.764587752471385 72.2451838520963 34.984069698676464 C 0.0 **** -0.24
29967 H 27.77696733454657 72.60252060306892 34.79663245975771 H 0.0 **** 0.06
29968 H 26.27852397416514 72.89517076918483 35.712939923984685 H 0.0 **** 0.06
29969 H 26.804447652893785 71.22764958901583 35.37450020317545 H 0.0 **** 0.06
29970 H 26.19712973533204 72.25529466575735 34.05279426329614 H 0.0 **** 0.06
29971 C 51.026242373780924 51.60817623072051 93.80660371730883 C 0.0 **** -0.24
29972 H 50.0207903998317 51.24845419229516 94.02512165605903 H 0.0 **** 0.06
29973 H 51.636354574257275 51.5523434491647 94.70809942341339 H 0.0 **** 0.06
29974 H 50.97392680011998 52.64257543128102 93.46611567472233 H 0.0 **** 0.06
29975 H 51.471716035411895 50.9909906482561 93.02637882571187 H 0.0 **** 0.06
29976 C 53.32945145569607 78.88954583833844 64.43408422650047 C 0.0 **** -0.24
29977 H 52.65795200215064 79.57148586147802 63.91304491388297 H 0.0 **** 0.06
29978 H 53.63642111782684 78.09314477138842 63.75514406995721 H 0.0 **** 0.06
29979 H 52.81448428753413 78.45743776673116 65.29175963737288 H 0.0 **** 0.06
29980 H 54.20834380096932 79.43654915763561 64.77572048647824 H 0.0 **** 0.06
29981 C 48.86350127440544 36.6983281755316 25.713572883932102 C 0.0 **** -0.24
29982 H 48.26251526870129 37.60717937856285 25.70997041794338 H 0.0 **** 0.06
29983 H 48.790927922691615 36.2108325388169 24.74085151258825 H 0.0 **** 0.06
29984 H 48.49716788486991 36.022968094268776 26.486563377321744 H 0.0 **** 0.06
29985 H 49.9047332445381 36.951655807940654 25.914970100917785 H 0.0 **** 0.06
29986 C 92.16686430880631 51.601701225162685 65.53775549927215 C 0.0 **** -0.24
29987 H 92.40956274606255 50.56376900561662 65.76263284885339 H 0.0 **** 0.06
29988 H 91.80744946366752 52.09469423678138 66.44168172533907 H 0.0 **** 0.06
29989 H 91.39207555586607 51.63630240797579 64.77186004087629 H 0.0 **** 0.06
29990 H 93.0590447827337 52.11326767737859 65.1750344947191 H 0.0 **** 0.06
29991 C 33.99211105919292 73.22748325732105 40.05544578456036 C 0.0 **** -0.24
29992 H 33.85578551370057 73.48821197135187 39.005589308180575 H 0.0 **** 0.06
29993 H 34.056351715558804 72.14425469386984 40.15541926694978 H 0.0 **** 0.06
29994 H 33.144443928874864 73.59667142816669 40.63353512066051 H 0.0 **** 0.06
29995 H 34.910548866554365 73.68281865676713 40.42576371591078 H 0.0 **** 0.06
29996 C 13.080703195001178 31.690593457431476 56.509491208158465 C 0.0 **** -0.24
29997 H 13.656861911257437 30.897119515254786 56.98516434303639 H 0.0 **** 0.06
29998 H 12.018212806581758 31.526568137531996 56.69165217073663 H 0.0 **** 0.06
29999 H 13.270456759944963 31.68347520894389 55.436152201640255 H 0.0 **** 0.06
30000 H 13.377177961400008 32.6535435148279 56.92453888778863 H 0.0 **** 0.06
30001 C 10.720991622837403 79.31524648103944 5.168131599406628 C 0.0 **** -0.24
30002 H 9.650059778240148 79.10989725745767 5.192798584028756 H 0.0 **** 0.06
30003 H 11.12263680468422 79.02952428603925 4.196045865822771 H 0.0 **** 0.06
30004 H 11.218275796508237 78.741695514707 5.949824256244517 H 0.0 **** 0.06
30005 H 10.889818757955936 80.37926094920516 5.33311737337136 H 0.0 **** 0.06
30006 C 56.84929257623898 12.34619838188462 56.85788608664791 C 0.0 **** -0.24
30007 H 57.83742330757201 11.886612895462292 56.84816353947656 H 0.0 **** 0.06
30008 H 56.259566175724416 11.92217342624474 57.67003525609414 H 0.0 **** 0.06
30009 H 56.35114008598231 12.154720556877464 55.907192092272055 H 0.0 **** 0.06
30010 H 56.951138261529394 13.421745770675784 57.00497453176547 H 0.0 **** 0.06
30011 C 3.4618253887070187 88.24967005397707 70.03260096545131 C 0.0 **** -0.24
30012 H 4.466774211315245 88.62231600916834 69.83328819070971 H 0.0 **** 0.06
30013 H 3.5162112085491284 87.42243846345116 70.74136457567978 H 0.0 **** 0.06
30014 H 3.012700312929849 87.90274666756818 69.10253457478879 H 0.0 **** 0.06
30015 H 2.8548738444525235 89.05003589913133 70.45349757183192 H 0.0 **** 0.06
30016 C 59.83043309563562 55.88557345799943 36.918456912941224 C 0.0 **** -0.24
30017 H 59.270694128183415 55.52735332181156 37.78328891795678 H 0.0 **** 0.06
30018 H 59.9009456855115 56.97319647724337 36.958255322027696 H 0.0 **** 0.06
30019 H 59.31735449065297 55.58723064726722 36.00489598882854 H 0.0 **** 0.06
30020 H 60.83182220765535 55.45553682274399 36.930867997960775 H 0.0 **** 0.06
30021 C 89.17241929263912 77.29463162832485 2.6065972938535538 C 0.0 **** -0.24
30022 H 88.11308975344083 77.13237961488352 2.8064470737949705 H 0.0 **** 0.06
30023 H 89.43284638134459 76.85215304046937 1.6450141487761982 H 0.0 **** 0.06
30024 H 89.7655846923473 76.82796920895913 3.3930104807145227 H 0.0 **** 0.06
30025 H 89.37695641369739 78.3643347864517 2.5827569740658447 H 0.0 **** 0.06
30026 C 23.104203033218052 58.848310126032516 83.14450243429671 C 0.0 **** -0.24
30027 H 22.82059756075296 57.930147781565836 82.62910200937273 H 0.0 **** 0.06
30028 H 22.331157551402676 59.11342682932252 83.86494220935474 H 0.0 **** 0.06
30029 H 23.21533054438198 59.652680628039036 82.41688199009755 H 0.0 **** 0.06
30030 H 24.050018570583813 58.69455941224328 83.66462782664003 H 0.0 **** 0.06
30031 C 55.86078841803595 77.72819558325858 12.882939723677367 C 0.0 **** -0.24
30032 H 55.053679657130544 77.97749330902627 13.571281038978483 H 0.0 **** 0.06
30033 H 55.65451545268792 76.76346042593036 12.416690472107149 H 0.0 **** 0.06
30034 H 56.80116355685993 77.67356482031397 13.431012497627194 H 0.0 **** 0.06
30035 H 55.93258025766312 78.49621972131143 12.113363526196864 H 0.0 **** 0.06
30036 C 45.57593763774045 33.38262992488414 14.199937683341716 C 0.0 **** -0.24
30037 H 45.330139079554925 34.307422377818526 14.720895116160463 H 0.0 **** 0.06
30038 H 46.65842725273208 33.29757754225942 14.101104164867024 H 0.0 **** 0.06
30039 H 45.119189580850104 33.39199035123602 13.209698138348699 H 0.0 **** 0.06
30040 H 45.193873468736484 32.53403986157747 14.76756307962927 H 0.0 **** 0.06
30041 C 51.28329578004054 100.77688331979641 93.91730099126569 C 0.0 **** -0.24
30042 H 50.7443962919145 100.07549705155532 94.55494069379453 H 0.0 **** 0.06
30043 H 51.5488625277007 100.28536238608103 92.98105839044126 H 0.0 **** 0.06
30044 H 52.189197015236786 101.10582915819668 94.42544786713512 H 0.0 **** 0.06
30045 H 50.64943784555211 101.6383243824572 93.70916622942656 H 0.0 **** 0.06
30046 C 54.15488167956552 30.359797107060956 62.88640595806416 C 0.0 **** -0.24
30047 H 53.307315148329124 30.900303147929378 63.307822500716796 H 0.0 **** 0.06
30048 H 54.33602808087381 29.455997702493846 63.46923645032757 H 0.0 **** 0.06
30049 H 55.04116769811486 30.994901310472585 62.915774751180436 H 0.0 **** 0.06
30050 H 53.93594662498709 30.089896714786278 61.854008331516994 H 0.0 **** 0.06
30051 C 97.39234694836364 61.23764502446623 25.433348028696628 C 0.0 **** -0.24
30052 H 97.41247601452835 60.80053620918733 26.432693567710288 H 0.0 **** 0.06
30053 H 96.47079494762255 60.946123268987094 24.928323536133675 H 0.0 **** 0.06
30054 H 98.2489150601267 60.87726201814682 24.86269584233834 H 0.0 **** 0.06
30055 H 97.43718678938802 62.32384818200072 25.510728802812935 H 0.0 **** 0.06
30056 C 19.764900815161468 19.721093017761063 38.327196972970796 C 0.0 **** -0.24
30057 H 19.664847887428238 18.840094438810908 38.961474230989666 H 0.0 **** 0.06
30058 H 19.22756864869504 19.55847845876228 37.39228392495596 H 0.0 **** 0.06
30059 H 20.818970720480593 19.897211573955786 38.11438587742026 H 0.0 **** 0.06
30060 H 19.34745561136444 20.587407734282223 38.840816523231524 H 0.0 **** 0.06
30061 C 106.45843072201778 93.02686858650117 90.6375689696103 C 0.0 **** -0.24
30062 H 106.66868142755146 92.0596986162534 90.1813721042223 H 0.0 **** 0.06
30063 H 105.506473098203 93.4054698655008 90.26335041006979 H 0.0 **** 0.06
30064 H 107.25278933427786 93.72889103143336 90.38331396592264 H 0.0 **** 0.06
30065 H 106.40476932362321 92.91405671361896 91.72010193189527 H 0.0 **** 0.06
30066 C 105.41793969417475 66.98323079086059 43.74424638314956 C 0.0 **** -0.24
30067 H 105.30474536438149 67.63768452661702 42.878550032485265 H 0.0 **** 0.06
30068 H 105.29843045302142 65.94554348671267 43.43246229785864 H 0.0 **** 0.06
30069 H 104.65915817983837 67.22980920838941 44.48671011355958 H 0.0 **** 0.06
30070 H 106.4081066867265 67.12193499622991 44.17660515607618 H 0.0 **** 0.06
30071 C 47.74794111352509 93.92849413883093 9.793735040574262 C 0.0 **** -0.24
30072 H 46.7796584569291 93.84988392684356 9.300837714417057 H 0.0 **** 0.06
30073 H 48.46772127415687 93.28584529941772 9.285763837172084 H 0.0 **** 0.06
30074 H 47.65281374927429 93.61536595816466 10.834104829243927 H 0.0 **** 0.06
30075 H 48.09222660083958 94.96177190009575 9.755391091185047 H 0.0 **** 0.06
30076 C 80.0512681443965 59.782382194188756 104.11451259860684 C 0.0 **** -0.24
30077 H 79.07411430026222 59.30274503363654 104.0678840861223 H 0.0 **** 0.06
30078 H 80.67314026087044 59.26974504407866 104.84823388055347 H 0.0 **** 0.06
30079 H 79.93065128325915 60.82596658941219 104.4056996589849 H 0.0 **** 0.06
30080 H 80.52797945846375 59.73100984846258 103.13470445619137 H 0.0 **** 0.06
30081 C 95.09418249630096 56.791852707426074 85.53678812918267 C 0.0 **** -0.24
30082 H 95.14772568868689 56.00853101341869 86.29125737715356 H 0.0 **** 0.06
30083 H 96.06504886728986 57.2805745248981 85.45046769151926 H 0.0 **** 0.06
30084 H 94.34180060811155 57.52544336190857 85.82707586847786 H 0.0 **** 0.06
30085 H 94.82131669463156 56.3534289867477 84.57612082492327 H 0.0 **** 0.06
30086 C 10.402570124866543 65.62988166609344 33.739542679289855 C 0.0 **** -0.24
30087 H 9.982824591460883 65.56024266198031 34.742587922058476 H 0.0 **** 0.06
30088 H 9.864206854210863 64.95546645881561 33.07344971603453 H 0.0 **** 0.06
30089 H 11.455846203848466 65.35026621843997 33.76656895359736 H 0.0 **** 0.06
30090 H 10.306576914055768 66.6529143981345 33.37651924116574 H 0.0 **** 0.06
30091 C 29.253160028525826 92.63757106668436 91.3536763978849 C 0.0 **** -0.24
30092 H 30.169481432081696 92.44201304360357 90.7958019507779 H 0.0 **** 0.06
30093 H 28.727175828547907 91.69790805280384 91.52796878594108 H 0.0 **** 0.06
30094 H 28.61547514376253 93.30996725831355 90.7798383945958 H 0.0 **** 0.06
30095 H 29.50122788893674 93.09754941967704 92.3095539526002 H 0.0 **** 0.06
30096 C 101.95723406232213 69.23106483014799 35.37558899137383 C 0.0 **** -0.24
30097 H 101.04406318980216 68.98099532856457 34.835659457331786 H 0.0 **** 0.06
30098 H 102.09472210051285 68.53156883881869 36.200199874359356 H 0.0 **** 0.06
30099 H 101.88261141155141 70.24501819243281 35.76683020037112 H 0.0 **** 0.06
30100 H 102.80855585635527 69.16463679240965 34.6972570070038 H 0.0 **** 0.06
30101 C 2.2855107449726244 62.234753937967696 49.55627919025713 C 0.0 **** -0.24
30102 H 2.908632613624369 62.20185918394134 50.449380935959454 H 0.0 **** 0.06
30103 H 1.2527242432353 62.01067000266653 49.825154974842036 H 0.0 **** 0.06
30104 H 2.6418086170282855 61.49698415489053 48.83715173676663 H 0.0 **** 0.06
30105 H 2.3385633068663996 63.22881196341393 49.112777493978825 H 0.0 **** 0.06
30106 C 76.14459313950576 82.32965987769343 71.11714418387555 C 0.0 **** -0.24
30107 H 76.33252012357285 81.48186181815159 70.45958313671133 H 0.0 **** 0.06
30108 H 77.08616033291146 82.67181578236877 71.547919431994 H 0.0 **** 0.06
30109 H 75.46835931976149 82.02624404176302 71.91689501885568 H 0.0 **** 0.06
30110 H 75.69046480875345 83.13929528386586 70.54513481860093 H 0.0 **** 0.06
30111 C 104.99795220117156 11.204051042470468 18.05982909121485 C 0.0 **** -0.24
30112 H 105.059140171791 11.821975357249926 17.16398519794845 H 0.0 **** 0.06
30113 H 105.60553351742446 11.646239289093927 18.848827928106118 H 0.0 **** 0.06
30114 H 105.36630767628627 10.20231523084776 17.835790316556995 H 0.0 **** 0.06
30115 H 103.96066070338529 11.143787213511615 18.38952491484585 H 0.0 **** 0.06
30116 C 81.49505028559386 29.437169011941677 62.55340891553112 C 0.0 **** -0.24
30117 H 82.19948898805822 30.134922549812273 62.09943659042534 H 0.0 **** 0.06
30118 H 80.84521380414246 29.02426650297724 61.7817012103535 H 0.0 **** 0.06
30119 H 80.89138986212754 29.961046429796852 63.29506603886716 H 0.0 **** 0.06
30120 H 82.04455925296548 28.629065733027687 63.03624604499197 H 0.0 **** 0.06
30121 C 58.792839944024706 20.99379289409282 90.92344565023313 C 0.0 **** -0.24
30122 H 58.02976049755276 21.58206624213139 91.43247306036 H 0.0 **** 0.06
30123 H 59.39711983081523 21.64928141115874 90.2952789605577 H 0.0 **** 0.06
30124 H 58.314127784365155 20.236923805489653 90.30263285480304 H 0.0 **** 0.06
30125 H 59.43031086391704 20.508030340478598 91.66122489113623 H 0.0 **** 0.06
30126 C 40.20012297159596 5.117307231166913 47.07487183327379 C 0.0 **** -0.24
30127 H 40.237211183684025 5.729186254670191 46.173386809416314 H 0.0 **** 0.06
30128 H 39.532049038356064 5.579896713760213 47.80110174181044 H 0.0 **** 0.06
30129 H 41.200691801948864 5.037966405197562 47.500294882536366 H 0.0 **** 0.06
30130 H 39.832315143730085 4.122723824580509 46.82345795682369 H 0.0 **** 0.06
30131 C 28.99935188997955 62.22845256533611 71.81875333171082 C 0.0 **** -0.24
30132 H 28.762439356212255 63.18804909125771 71.35965568566095 H 0.0 **** 0.06
30133 H 28.966870994060827 61.44531846877845 71.06047584793441 H 0.0 **** 0.06
30134 H 28.2715042136181 62.00968303111267 72.60008383671531 H 0.0 **** 0.06
30135 H 29.99764609286339 62.27198744790084 72.25417853171581 H 0.0 **** 0.06
30136 C 44.88917077985292 76.78125185516294 89.2179214241894 C 0.0 **** -0.24
30137 H 45.66829668775881 76.56102624243559 88.48772471438912 H 0.0 **** 0.06
30138 H 44.94684908244591 76.06498781347986 90.03714527333358 H 0.0 **** 0.06
30139 H 43.91305680373114 76.70817069207138 88.73870921460991 H 0.0 **** 0.06
30140 H 45.02909604385974 77.79012949193688 89.60607157613191 H 0.0 **** 0.06
30141 C 19.637838918874696 49.33175170463235 100.25531674590104 C 0.0 **** -0.24
30142 H 19.11876320380751 48.48831767184546 99.80079819882266 H 0.0 **** 0.06
30143 H 19.296770894186256 50.25911540374863 99.79443399628809 H 0.0 **** 0.06
30144 H 20.71157155788895 49.22221525891904 100.10162317561486 H 0.0 **** 0.06
30145 H 19.423797185465467 49.356522456198704 101.3241017019746 H 0.0 **** 0.06
30146 C 19.62084027683146 18.458895834610473 52.731267575823395 C 0.0 **** -0.24
30147 H 19.50601193460551 17.536889811579954 53.30073138332283 H 0.0 **** 0.06
30148 H 20.08188528130715 19.219872229216662 53.36183731148509 H 0.0 **** 0.06
30149 H 18.641874223849356 18.80503741022136 52.39942093413726 H 0.0 **** 0.06
30150 H 20.254470776488944 18.27294062342139 51.86379666665344 H 0.0 **** 0.06
30151 C 56.30037280305271 104.61197280623882 34.92353911149962 C 0.0 **** -0.24
30152 H 56.1833723684619 104.92155817237874 35.96238440104986 H 0.0 **** 0.06
30153 H 55.98061564438865 103.57578203561327 34.814875699530035 H 0.0 **** 0.06
30154 H 57.34769429700731 104.7011359108033 34.63469946110553 H 0.0 **** 0.06
30155 H 55.69170870086825 105.25081372337995 34.28405027307633 H 0.0 **** 0.06
30156 C 64.99086840110078 34.1510420097469 31.377429420117295 C 0.0 **** -0.24
30157 H 65.61460143215987 34.838594394717575 30.805754203481882 H 0.0 **** 0.06
30158 H 64.14759177423485 33.830982235266816 30.76552585503825 H 0.0 **** 0.06
30159 H 64.62152563029349 34.65482405788458 32.270694372013736 H 0.0 **** 0.06
30160 H 65.58046746540202 33.281773137723235 31.66842816769949 H 0.0 **** 0.06
30161 C 93.12778157071602 16.672140046509075 37.774363301567206 C 0.0 **** -0.24
30162 H 92.20791021612472 17.19736048872141 38.03040208983103 H 0.0 **** 0.06
30163 H 93.6837190864842 17.2523473981539 37.03776801032001 H 0.0 **** 0.06
30164 H 92.88440817302296 15.694570706239443 37.358512044726496 H 0.0 **** 0.06
30165 H 93.73518647806195 16.54474039086783 38.66988787913306 H 0.0 **** 0.06
30166 C 4.2905872927508995 84.94160606784652 95.05898895790594 C 0.0 **** -0.24
30167 H 4.2066772173307925 84.61740749183878 94.02204630892346 H 0.0 **** 0.06
30168 H 3.7827049450798143 84.2256295789116 95.70551576842645 H 0.0 **** 0.06
30169 H 3.8308409109290267 85.92340273040071 95.17113740551557 H 0.0 **** 0.06
30170 H 5.343327400701099 84.99925729455879 95.33708848379617 H 0.0 **** 0.06
30171 C 72.71518475295241 81.41944031097303 21.391243769757693 C 0.0 **** -0.24
30172 H 72.50477245765791 81.70022464175338 20.359327820440626 H 0.0 **** 0.06
30173 H 72.30429632323845 80.42876735977492 21.588146162314843 H 0.0 **** 0.06
30174 H 72.25630761686307 82.14346442180117 22.064529420675626 H 0.0 **** 0.06
30175 H 73.7932494103976 81.4056672336969 21.55112684622287 H 0.0 **** 0.06
30176 C 35.71820403354886 4.681690027940737 60.711490602303556 C 0.0 **** -0.24
30177 H 36.50098756887786 3.9850404204196455 61.010132410370545 H 0.0 **** 0.06
30178 H 36.168572638803084 5.549619113943859 60.23066746176508 H 0.0 **** 0.06
30179 H 35.161213598697856 5.000964626459483 61.59238622367948 H 0.0 **** 0.06
30180 H 35.041172117602656 4.189139059481342 60.012270953203576 H 0.0 **** 0.06
30181 C 93.61758184512348 78.73476937989429 6.123124676534246 C 0.0 **** -0.24
30182 H 94.48455925576805 78.23029785700845 5.696179277110986 H 0.0 **** 0.06
30183 H 93.41745889120004 78.33429971225927 7.117262788188555 H 0.0 **** 0.06
30184 H 92.75007430015079 78.57063786123406 5.4827909531815635 H 0.0 **** 0.06
30185 H 93.81844987499059 79.80429950162339 6.195402774038541 H 0.0 **** 0.06
30186 C 32.727189063946554 35.369763270914575 48.87945701677571 C 0.0 **** -0.24
30187 H 32.66773935896444 36.35935667723763 49.33137546294682 H 0.0 **** 0.06
30188 H 31.999395031450405 34.71039967173013 49.354515213969684 H 0.0 **** 0.06
30189 H 33.729602058286645 34.9657334014982 49.02099415242483 H 0.0 **** 0.06
30190 H 32.5104466236065 35.442701385988016 47.814070974864634 H 0.0 **** 0.06
30191 C 36.359638384659895 76.56403046481398 79.85420971449003 C 0.0 **** -0.24
30192 H 36.55009975632506 75.71862518411564 80.51584565233696 H 0.0 **** 0.06
30193 H 37.24787999106829 77.19364849637401 79.80566412810572 H 0.0 **** 0.06
30194 H 35.52207126815442 77.14595003774906 80.24104911415071 H 0.0 **** 0.06
30195 H 36.11769791928435 76.19737833237178 78.85630051822238 H 0.0 **** 0.06
30196 C 98.80447281777039 92.63300621784126 23.737542023804224 C 0.0 **** -0.24
30197 H 98.43168892523693 91.89671610688328 23.025897644341484 H 0.0 **** 0.06
30198 H 99.31744394170019 92.12294871012384 24.553383741682637 H 0.0 **** 0.06
30199 H 97.96851146121477 93.20796423460493 24.13676705830636 H 0.0 **** 0.06
30200 H 99.50024694292973 93.30439581975307 23.234119650886328 H 0.0 **** 0.06
30201 C 97.78412289576616 1.0459982822368374 31.747117766364084 C 0.0 **** -0.24
30202 H 97.05482432152485 0.41204915461338487 32.251431954523895 H 0.0 **** 0.06
30203 H 98.11220565529368 1.8319053995547563 32.42773765505447 H 0.0 **** 0.06
30204 H 97.32634078176324 1.4956621387108129 30.86566119435585 H 0.0 **** 0.06
30205 H 98.64116820757857 0.44449803722166337 31.444723188400673 H 0.0 **** 0.06
30206 C 15.72404549726646 101.70181997882244 35.45898368385923 C 0.0 **** -0.24
30207 H 15.316467260034273 101.2128489552205 36.34348354285487 H 0.0 **** 0.06
30208 H 15.202790113301603 102.6456117320881 35.292449140118805 H 0.0 **** 0.06
30209 H 15.590576972957962 101.05499640352897 34.5917443098877 H 0.0 **** 0.06
30210 H 16.786476126860265 101.89523079183985 35.60829255307138 H 0.0 **** 0.06
30211 C 103.42732773716462 32.56518767131443 80.41618082681309 C 0.0 **** -0.24
30212 H 104.42031659213012 32.78744253073678 80.80461941403883 H 0.0 **** 0.06
30213 H 103.0643458166708 33.41668080812748 79.83804900313092 H 0.0 **** 0.06
30214 H 102.74698982630487 32.373063075183495 81.24575431209725 H 0.0 **** 0.06
30215 H 103.47627906156592 31.68507101793469 79.77494907845139 H 0.0 **** 0.06
30216 C 17.742541359125823 16.654789067612526 98.96308456936782 C 0.0 **** -0.24
30217 H 17.59764068752571 16.399018620337927 100.01203305080608 H 0.0 **** 0.06
30218 H 16.780609370157322 16.90266307550398 98.51359923722035 H 0.0 **** 0.06
30219 H 18.180020167743805 15.804854226224734 98.43934917487954 H 0.0 **** 0.06
30220 H 18.41139938205663 17.51200002743775 98.88796459870068 H 0.0 **** 0.06
30221 C 15.643487385252342 7.525580987749322 63.75592862749566 C 0.0 **** -0.24
30222 H 16.42613290150541 6.815656314322325 63.486860422242074 H 0.0 **** 0.06
30223 H 15.388509338549454 8.1308022948067 62.8857895073576 H 0.0 **** 0.06
30224 H 16.00040923626841 8.172326610093194 64.55756857697183 H 0.0 **** 0.06
30225 H 14.7613814566283 6.981913161544071 64.09305931093691 H 0.0 **** 0.06
30226 C 33.794511006495895 34.08623700646589 86.9780400616911 C 0.0 **** -0.24
30227 H 32.883568828346085 34.128165826756344 87.5756645744085 H 0.0 **** 0.06
30228 H 34.65798681367909 34.010845500400336 87.63766895689662 H 0.0 **** 0.06
30229 H 33.87459993644177 34.99030763929551 86.37494659236393 H 0.0 **** 0.06
30230 H 33.75857351468602 33.21553456751127 86.32382722568019 H 0.0 **** 0.06
30231 C 50.76679948037363 50.6342071919218 58.56011547013685 C 0.0 **** -0.24
30232 H 51.55520531050062 51.3407718024817 58.81855575851199 H 0.0 **** 0.06
30233 H 51.17815832481677 49.62503943405747 58.53101113436716 H 0.0 **** 0.06
30234 H 50.35678056308307 50.88826164176612 57.58204104256606 H 0.0 **** 0.06
30235 H 49.975809056583195 50.68302354424932 59.30946978456586 H 0.0 **** 0.06
30236 C 28.97941251462146 31.462925454633798 49.52061220331433 C 0.0 **** -0.24
30237 H 27.996436752112118 31.20730576098765 49.12537946745351 H 0.0 **** 0.06
30238 H 29.595453843686187 31.877264251762888 48.72118287611437 H 0.0 **** 0.06
30239 H 29.455412157788032 30.567022332452524 49.91854890455866 H 0.0 **** 0.06
30240 H 28.872171292581925 32.20064196191636 50.315791666967925 H 0.0 **** 0.06
30241 C 100.30632046526821 33.00591737000033 37.74801077257547 C 0.0 **** -0.24
30242 H 100.20221685297872 31.928324733459817 37.880223934909 H 0.0 **** 0.06
30243 H 99.91689533579918 33.51852881267513 38.62783649604165 H 0.0 **** 0.06
30244 H 99.74513769711749 33.31873932403835 36.86666345168862 H 0.0 **** 0.06
30245 H 101.35852871359006 33.25544046860094 37.616433157139994 H 0.0 **** 0.06
30246 C 36.56796001440291 64.40371159536356 78.01317760671373 C 0.0 **** -0.24
30247 H 36.195747439404165 65.3970896790764 78.26432199447385 H 0.0 **** 0.06
30248 H 37.323183524780866 64.48613318180324 77.23113613191686 H 0.0 **** 0.06
30249 H 35.74325199615218 63.785801641509536 77.65986808221419 H 0.0 **** 0.06
30250 H 37.01039426871767 63.947496376697885 78.89901299454834 H 0.0 **** 0.06
30251 C 56.94000868201192 93.70752887192131 7.544616613988239 C 0.0 **** -0.24
30252 H 57.40692961391608 94.65423459166597 7.272194426499482 H 0.0 **** 0.06
30253 H 57.654285807138194 93.0956274670048 8.094100458023235 H 0.0 **** 0.06
30254 H 56.62902031742084 93.18192042957553 6.641822226713174 H 0.0 **** 0.06
30255 H 56.068382739019 93.89990833851134 8.171065425311042 H 0.0 **** 0.06
30256 C 4.509785023010302 79.31427092122087 40.64565955555159 C 0.0 **** -0.24
30257 H 3.501791582861806 79.0287340135879 40.34799612480967 H 0.0 **** 0.06
30258 H 5.201483954085123 78.50366222075442 40.414421859032586 H 0.0 **** 0.06
30259 H 4.529130100442105 79.51359032239472 41.71789895499376 H 0.0 **** 0.06
30260 H 4.80792346891587 80.21276283118172 40.10451493168114 H 0.0 **** 0.06
30261 C 64.79421229523246 57.60999295518923 51.47134022562142 C 0.0 **** -0.24
30262 H 64.22944737488308 56.82401562040312 50.96826866071951 H 0.0 **** 0.06
30263 H 64.12338308313468 58.18668600061426 52.10919449473723 H 0.0 **** 0.06
30264 H 65.24211496491307 58.26794044619362 50.72558082945977 H 0.0 **** 0.06
30265 H 65.5792206028475 57.161502423431955 52.078473497659886 H 0.0 **** 0.06
30266 C 14.847613501895232 48.802702010687995 37.41153326133573 C 0.0 **** -0.24
30267 H 13.870464111398572 49.173402446984966 37.71905871233232 H 0.0 **** 0.06
30268 H 15.613001211528122 49.19701919977922 38.0807928273645 H 0.0 **** 0.06
30269 H 15.054739406944517 49.127568000422656 36.39138929949604 H 0.0 **** 0.06
30270 H 14.853310873204645 47.71364490487176 37.45341231373451 H 0.0 **** 0.06
30271 C 7.521092441060091 88.93368629689098 76.81668481050053 C 0.0 **** -0.24
30272 H 7.434439423956235 90.01743197994887 76.73597374602451 H 0.0 **** 0.06
30273 H 7.892407915347974 88.52742278646548 75.87650800340538 H 0.0 **** 0.06
30274 H 6.543172600852188 88.5065782335231 77.03674651304283 H 0.0 **** 0.06
30275 H 8.21501153517653 88.68429833699685 77.62026598629569 H 0.0 **** 0.06
30276 C 104.11823906824387 57.91597086593743 32.04536309609105 C 0.0 **** -0.24
30277 H 103.78775074729674 57.01888260135932 32.569162517819024 H 0.0 **** 0.06
30278 H 104.84788820604184 57.6429449090752 31.282611040458022 H 0.0 **** 0.06
30279 H 104.57547274460228 58.60427314455857 32.75689320195093 H 0.0 **** 0.06
30280 H 103.26146526873886 58.398042084375675 31.573673852111114 H 0.0 **** 0.06
30281 C 94.2967689919546 50.043700936583264 60.30150639132813 C 0.0 **** -0.24
30282 H 95.18275161680849 49.41055157266857 60.34959361572601 H 0.0 **** 0.06
30283 H 94.0648556256679 50.42119609333599 61.2983360607156 H 0.0 **** 0.06
30284 H 93.4535253293372 49.46174927301962 59.92859336428779 H 0.0 **** 0.06
30285 H 94.48532418312439 50.88177694998143 59.63013148191391 H 0.0 **** 0.06
30286 C 50.87423928527944 85.74975288831601 40.571292543502494 C 0.0 **** -0.24
30287 H 50.132379440520864 84.99413478241704 40.830163102775 H 0.0 **** 0.06
30288 H 51.38198952469644 85.46000508717859 39.65096616450927 H 0.0 **** 0.06
30289 H 51.602575821785 85.83505079103887 41.37740595988484 H 0.0 **** 0.06
30290 H 50.37869546881712 86.7100236001676 40.42616080038687 H 0.0 **** 0.06
30291 C 18.573273056231898 70.6590222140552 7.818876533027037 C 0.0 **** -0.24
30292 H 19.346091335736247 70.38189958862961 7.1011302579662186 H 0.0 **** 0.06
30293 H 18.348923322191013 69.80566282906045 8.458959083508034 H 0.0 **** 0.06
30294 H 17.671939343234328 70.95924944776647 7.283424475458503 H 0.0 **** 0.06
30295 H 18.926357741653447 71.48966764473579 8.428706024272174 H 0.0 **** 0.06
30296 C 55.96300532821985 68.25033529193456 86.9106377549088 C 0.0 **** -0.24
30297 H 56.508661381907054 69.10808687802415 86.51648368773866 H 0.0 **** 0.06
30298 H 56.38717313089802 67.33215226175042 86.5041647423343 H 0.0 **** 0.06
30299 H 54.91400277648933 68.32545155565697 86.62481983385452 H 0.0 **** 0.06
30300 H 56.043855767385566 68.23741654688561 87.99737691473945 H 0.0 **** 0.06
30301 C 53.834745666946525 48.801059341419275 90.18304702314819 C 0.0 **** -0.24
30302 H 53.47105927070795 49.75159621018174 89.79157465286895 H 0.0 **** 0.06
30303 H 54.92006283882672 48.84000152349353 90.27857121363394 H 0.0 **** 0.06
30304 H 53.55811512664805 47.99776163179037 89.50083004809684 H 0.0 **** 0.06
30305 H 53.38997408483243 48.6180306917194 91.16111882684154 H 0.0 **** 0.06
30306 C 3.99269159666303 96.40005602591715 57.57654663523956 C 0.0 **** -0.24
30307 H 4.458435012654132 95.46431519569904 57.26739800381692 H 0.0 **** 0.06
30308 H 4.753551271966364 97.06602637830483 57.98419817097406 H 0.0 **** 0.06
30309 H 3.2410148014854974 96.19656461469314 58.338794572798754 H 0.0 **** 0.06
30310 H 3.519608480366694 96.87214828973116 56.71628045323565 H 0.0 **** 0.06
30311 C 75.96560460754637 6.407903657583006 43.84188307199827 C 0.0 **** -0.24
30312 H 75.65772168625503 7.396781508938943 43.50281760974309 H 0.0 **** 0.06
30313 H 76.2345666801395 5.795933381026316 42.98106864382845 H 0.0 **** 0.06
30314 H 75.14454700189233 5.936753590683452 44.38160772265917 H 0.0 **** 0.06
30315 H 76.82675278612973 6.503758015090057 44.50305510346823 H 0.0 **** 0.06
30316 C 15.535823932595875 44.80018890728189 32.320800256368926 C 0.0 **** -0.24
30317 H 14.819926478610114 45.44128116178905 32.83563934315134 H 0.0 **** 0.06
30318 H 15.688759376909687 43.8887569342549 32.899887708539666 H 0.0 **** 0.06
30319 H 16.4847936461708 45.32718471558337 32.216107086205 H 0.0 **** 0.06
30320 H 15.150403044518583 44.54364277702376 31.334506950593436 H 0.0 **** 0.06
30321 C 73.24188847216072 104.30891900394259 7.868173612480206 C 0.0 **** -0.24
30322 H 73.96431444737784 103.69960359282342 8.410855957316244 H 0.0 **** 0.06
30323 H 72.51356922892802 104.71777468115977 8.56871899644365 H 0.0 **** 0.06
30324 H 72.72990892363623 103.69334586583524 7.129031997022125 H 0.0 **** 0.06
30325 H 73.76087324942205 105.1257377330793 7.3658612528335965 H 0.0 **** 0.06
30326 C 89.16072847891768 12.623134098090773 36.98693131827574 C 0.0 **** -0.24
30327 H 89.22280927971435 11.581560130224688 36.670726670709826 H 0.0 **** 0.06
30328 H 90.03275757709234 12.870495104259504 37.59308520568348 H 0.0 **** 0.06
30329 H 88.25455191445087 12.770146041776556 37.57478864862668 H 0.0 **** 0.06
30330 H 89.13340727693871 13.268186878892678 36.10902178739758 H 0.0 **** 0.06
30331 C 4.329795082673641 39.87568361116174 92.06768958661728 C 0.0 **** -0.24
30332 H 4.00346919443183 40.89202460480356 91.84476773042432 H 0.0 **** 0.06
30333 H 3.7382014368831307 39.476937612323695 92.89181536391402 H 0.0 **** 0.06
30334 H 5.383911038238267 39.885873009452105 92.34663847174933 H 0.0 **** 0.06
30335 H 4.194073370034218 39.24938686235088 91.1849751441103 H 0.0 **** 0.06
30336 C 17.7356096955927 15.609509443184535 55.673729161356086 C 0.0 **** -0.24
30337 H 17.517516809488427 16.584324303275068 56.10979932023938 H 0.0 **** 0.06
30338 H 18.75154762342416 15.313448527433621 55.93450637218134 H 0.0 **** 0.06
30339 H 17.640879833779195 15.667907492859698 54.5893889786611 H 0.0 **** 0.06
30340 H 17.031327110579923 14.87279820341594 56.06055639705579 H 0.0 **** 0.06
30341 C 17.087153133570254 3.5520825940294705 6.396505827128436 C 0.0 **** -0.24
30342 H 17.88606141005136 3.60852003185299 5.657249389108472 H 0.0 **** 0.06
30343 H 16.767799585749586 2.5156671350072806 6.508831449190708 H 0.0 **** 0.06
30344 H 16.244041729232574 4.15840843544261 6.067948733768432 H 0.0 **** 0.06
30345 H 17.45217225398341 3.9247945451785 7.354224788639968 H 0.0 **** 0.06
30346 C 26.05621015723375 11.933836750486705 41.4971769167649 C 0.0 **** -0.24
30347 H 26.45264572658877 12.869004532513632 41.89294929682376 H 0.0 **** 0.06
30348 H 25.300493698479585 11.54239079135676 42.178533963050576 H 0.0 **** 0.06
30349 H 26.866073147008308 11.210504776893208 41.39688459862544 H 0.0 **** 0.06
30350 H 25.606536664833982 12.113385215338207 40.52075293378454 H 0.0 **** 0.06
30351 C 48.02752571629682 105.38659496360249 81.51094112832112 C 0.0 **** -0.24
30352 H 47.194141516947155 105.33588640159995 80.80973919114763 H 0.0 **** 0.06
30353 H 48.55050314734436 104.43057343846635 81.52367440279136 H 0.0 **** 0.06
30354 H 47.64970258281474 105.60958182410887 82.50800440531447 H 0.0 **** 0.06
30355 H 48.715972871468125 106.17284060565848 81.19878398783084 H 0.0 **** 0.06
30356 C 95.39120484096406 69.31682716213442 79.09748135230828 C 0.0 **** -0.24
30357 H 95.73532279782434 69.155297328478 78.07523347815456 H 0.0 **** 0.06
30358 H 96.25179009414161 69.37571037086708 79.7648025316337 H 0.0 **** 0.06
30359 H 94.75202652324118 68.48691921312471 79.40036519888622 H 0.0 **** 0.06
30360 H 94.82702821430105 70.24829832840057 79.14778964475207 H 0.0 **** 0.06
30361 C 86.42549943763771 35.16991329648833 54.85721229710051 C 0.0 **** -0.24
30362 H 86.52949405793623 34.108871791221254 54.62922156615378 H 0.0 **** 0.06
30363 H 87.37539799695838 35.55685107716338 55.225304080924445 H 0.0 **** 0.06
30364 H 85.65788794583983 35.30254556334257 55.619490446322004 H 0.0 **** 0.06
30365 H 86.13794258113643 35.70849515118248 53.95467625250072 H 0.0 **** 0.06
30366 C 94.76451447444998 16.4835287959679 43.037592715246376 C 0.0 **** -0.24
30367 H 94.9865937511708 15.421267199837061 43.14545772866856 H 0.0 **** 0.06
30368 H 93.77094653580752 16.689842049394173 43.435972328144516 H 0.0 **** 0.06
30369 H 94.79702906019867 16.755342059929355 41.98305963998794 H 0.0 **** 0.06
30370 H 95.50495253109125 17.066100556302295 43.58652383593741 H 0.0 **** 0.06
30371 C 19.236272232832846 0.7952291790451653 35.65911764557845 C 0.0 **** -0.24
30372 H 19.178786519827497 1.8661322794799133 35.462550403664494 H 0.0 **** 0.06
30373 H 19.024488748167983 0.24636002095729737 34.74210343600433 H 0.0 **** 0.06
30374 H 18.50402561974957 0.5266554155566752 36.42095080729055 H 0.0 **** 0.06
30375 H 20.236677759329467 0.5443446073475826 36.01123183835617 H 0.0 **** 0.06
30376 C 102.06547394137364 17.818865708483173 73.25732625108695 C 0.0 **** -0.24
30377 H 102.32011413883748 18.784452300801036 73.69458203796553 H 0.0 **** 0.06
30378 H 101.69208215871397 17.967020840986578 72.2434774487706 H 0.0 **** 0.06
30379 H 101.29652343030595 17.338065019887836 73.86147646972213 H 0.0 **** 0.06
30380 H 102.95380553318087 17.187892337865208 73.22891332734122 H 0.0 **** 0.06
30381 C 38.242239607316066 54.26479252194571 25.433535267298936 C 0.0 **** -0.24
30382 H 38.513608899651246 54.89119911801649 26.283625978617863 H 0.0 **** 0.06
30383 H 37.60866646685264 53.44456569226608 25.77382311222712 H 0.0 **** 0.06
30384 H 39.14624617624648 53.860572999876325 24.97701095080521 H 0.0 **** 0.06
30385 H 37.701442292430414 54.86249506885741 24.700616731178414 H 0.0 **** 0.06
30386 C 14.767409755837729 95.16428984116547 70.36106370499134 C 0.0 **** -0.24
30387 H 15.382706180257966 94.48460846721507 69.77101686335851 H 0.0 **** 0.06
30388 H 13.855148979726462 95.3969395043504 69.8112154128329 H 0.0 **** 0.06
30389 H 15.321153583573725 96.08331258749496 70.55098114878697 H 0.0 **** 0.06
30390 H 14.51054152063113 94.691596932674 71.30892013912185 H 0.0 **** 0.06
30391 C 0.03557182674484238 19.724300442209397 92.07301250064745 C 0.0 **** -0.24
30392 H 0.0687339214646272 19.68497403079411 93.16228632525477 H 0.0 **** 0.06
30393 H -0.8522819432185429 19.201874815146653 91.71779028558672 H 0.0 **** 0.06
30394 H 0.9270887349105692 19.24603972697855 91.66555567477022 H 0.0 **** 0.06
30395 H 0.0014352160306998485 20.764552274070894 91.74772713161559 H 0.0 **** 0.06
30396 C 65.95504711252954 97.17748853506626 63.03638502359743 C 0.0 **** -0.24
30397 H 65.15177148733359 97.21003850598109 63.77228818684556 H 0.0 **** 0.06
30398 H 65.85123120742529 98.0163577612471 62.34790016221005 H 0.0 **** 0.06
30399 H 65.8988095836536 96.24192801729464 62.47987844975411 H 0.0 **** 0.06
30400 H 66.91702131382685 97.24060243097395 63.54514330070495 H 0.0 **** 0.06
30401 C 55.13302267471167 20.06655032951743 12.379708458863249 C 0.0 **** -0.24
30402 H 55.46947243336192 20.571772538293207 13.284087088737607 H 0.0 **** 0.06
30403 H 54.67926629190241 20.793238802035713 11.704986465944387 H 0.0 **** 0.06
30404 H 54.39780373745077 19.304441264647057 12.641541761187852 H 0.0 **** 0.06
30405 H 55.98395396283719 19.595381447667823 11.888986053398128 H 0.0 **** 0.06
30406 C 64.09388063623015 98.15540737352305 71.68471161354222 C 0.0 **** -0.24
30407 H 63.28580061553882 98.7463278903723 72.11601583894935 H 0.0 **** 0.06
30408 H 64.80492400910255 98.81896276667241 71.19181882300569 H 0.0 **** 0.06
30409 H 63.6834115264036 97.45573299958426 70.95706708517841 H 0.0 **** 0.06
30410 H 64.60174087621104 97.60193395567615 72.47570841747799 H 0.0 **** 0.06
30411 C 106.0480150210087 103.7818927098207 44.25352231858221 C 0.0 **** -0.24
30412 H 106.64757146485013 103.23444622994332 43.5271793783443 H 0.0 **** 0.06
30413 H 106.05901960180739 104.84399916988531 44.005904591885184 H 0.0 **** 0.06
30414 H 106.46420891361475 103.63640236195296 45.250547356089356 H 0.0 **** 0.06
30415 H 105.02259827217406 103.41317810669901 44.23050638175462 H 0.0 **** 0.06
30416 C 69.84528874481553 100.17825103541944 49.99996293378882 C 0.0 **** -0.24
30417 H 70.90101128440755 100.44484255198849 49.96704598383582 H 0.0 **** 0.06
30418 H 69.64679811861913 99.39187701251171 49.271357347872424 H 0.0 **** 0.06
30419 H 69.24200977235711 101.05513795243299 49.76174539984737 H 0.0 **** 0.06
30420 H 69.59097281937497 99.82215412994253 50.997739994234905 H 0.0 **** 0.06
30421 C 13.059396012923912 99.5891195454917 20.1327842821413 C 0.0 **** -0.24
30422 H 12.01903733910811 99.69691317234599 20.44175051334588 H 0.0 **** 0.06
30423 H 13.127838739153589 99.67835657551838 19.048861763293132 H 0.0 **** 0.06
30424 H 13.430532611387122 98.61256425982002 20.442392208019953 H 0.0 **** 0.06
30425 H 13.659337491276858 100.37072831543394 20.600358579375722 H 0.0 **** 0.06
30426 C 79.37919265152291 19.38776111356276 65.65245310295694 C 0.0 **** -0.24
30427 H 79.3679356795755 18.598605107070057 64.90069065216292 H 0.0 **** 0.06
30428 H 79.89597079483362 20.26064118811388 65.25323957018628 H 0.0 **** 0.06
30429 H 79.89800406502559 19.033721652074576 66.54310593597671 H 0.0 **** 0.06
30430 H 78.35559185272119 19.657334376811377 65.91182031205685 H 0.0 **** 0.06
30431 C 39.699324334479684 3.1020009680925256 51.78441229626753 C 0.0 **** -0.24
30432 H 40.40329373592303 3.3491269737501455 52.57932081038962 H 0.0 **** 0.06
30433 H 39.97868703778106 3.631515958458465 50.87401072361507 H 0.0 **** 0.06
30434 H 38.694490629273105 3.399286075250714 52.084499780338604 H 0.0 **** 0.06
30435 H 39.72018638968976 2.0271862816716464 51.602009143869566 H 0.0 **** 0.06
30436 C 41.59807927100958 30.39092815511836 52.83493354399582 C 0.0 **** -0.24
30437 H 40.627518294065055 30.88207145447953 52.908359559692 H 0.0 **** 0.06
30438 H 41.494707387911035 29.468159995056624 52.26315392681491 H 0.0 **** 0.06
30439 H 41.96570101298861 30.16090728893809 53.83424245390373 H 0.0 **** 0.06
30440 H 42.30295974281253 31.05279709330702 52.330994289441236 H 0.0 **** 0.06
30441 C 15.639113904463102 99.01844557317256 13.061814808462643 C 0.0 **** -0.24
30442 H 14.959770059385505 99.19040439919846 13.896342089300852 H 0.0 **** 0.06
30443 H 16.00851269663667 99.9751333612295 12.691925993771186 H 0.0 **** 0.06
30444 H 15.108371004251353 98.50035164541092 12.262224022230866 H 0.0 **** 0.06
30445 H 16.47760529065954 98.40839059585815 13.395803979648463 H 0.0 **** 0.06
30446 C 101.91058319583149 23.754973639354887 74.73123481883441 C 0.0 **** -0.24
30447 H 102.64715465120065 24.326187935383132 74.16571872641484 H 0.0 **** 0.06
30448 H 101.02538069821813 23.594165856918607 74.11561064944297 H 0.0 **** 0.06
30449 H 101.63367431261054 24.309703634068 75.62851731386421 H 0.0 **** 0.06
30450 H 102.33618983024914 22.79357744996986 75.01517138259582 H 0.0 **** 0.06
30451 C 91.02772463390555 50.644998714988596 84.79365892410082 C 0.0 **** -0.24
30452 H 89.96123134264016 50.74756876403005 84.99422600625839 H 0.0 **** 0.06
30453 H 91.19120500319912 50.595147436346224 83.71649190340176 H 0.0 **** 0.06
30454 H 91.39937854918048 49.73392645846146 85.26175120185073 H 0.0 **** 0.06
30455 H 91.55796256907563 51.50613430250519 85.20210721376687 H 0.0 **** 0.06
30456 C 23.08502975994554 19.38869779086437 10.306615751599665 C 0.0 **** -0.24
30457 H 22.298580076777654 18.639301313382433 10.220345845016212 H 0.0 **** 0.06
30458 H 23.372227393827302 19.729118492481334 9.311559978895076 H 0.0 **** 0.06
30459 H 23.950381418755427 18.951951194758266 10.8055622860891 H 0.0 **** 0.06
30460 H 22.718715660641493 20.234234944470174 10.887609335000136 H 0.0 **** 0.06
30461 C 88.41789915093919 47.77720736810846 48.779608473330256 C 0.0 **** -0.24
30462 H 88.95177630751049 48.42379551369555 49.47571883747014 H 0.0 **** 0.06
30463 H 88.32187784997005 46.781326099714136 49.21079643926032 H 0.0 **** 0.06
30464 H 88.97235922252061 47.716569329100025 47.842642195257895 H 0.0 **** 0.06
30465 H 87.42626945201451 48.18872812958966 48.5892274129169 H 0.0 **** 0.06
30466 C 9.176936011243527 75.83923319676998 31.347087493588646 C 0.0 **** -0.24
30467 H 9.319556021553922 75.17745144423557 30.49312430560022 H 0.0 **** 0.06
30468 H 8.156819217320304 75.73788053580537 31.718626335763645 H 0.0 **** 0.06
30469 H 9.351622934103375 76.87017547671473 31.040881425037583 H 0.0 **** 0.06
30470 H 9.879481487179163 75.57007031375039 32.13602470242708 H 0.0 **** 0.06
30471 C 25.309064720448234 91.26916307179371 46.91591463371691 C 0.0 **** -0.24
30472 H 25.940939096401053 92.05125437843279 46.49348034614758 H 0.0 **** 0.06
30473 H 25.311835679252948 90.40374435302536 46.25337522986189 H 0.0 **** 0.06
30474 H 24.290642951609748 91.64333697694221 47.02158254911677 H 0.0 **** 0.06
30475 H 25.6932194160552 90.9803924018685 47.89397616178013 H 0.0 **** 0.06
30476 C 9.202647355287326 72.2392034034824 21.347425358569154 C 0.0 **** -0.24
30477 H 8.563446670790839 71.96595672806052 22.187570281667973 H 0.0 **** 0.06
30478 H 8.645894123092233 72.1278145016102 20.416949103497217 H 0.0 **** 0.06
30479 H 10.076037117385496 71.58833697507583 21.330022475141675 H 0.0 **** 0.06
30480 H 9.522670000946945 73.27531179270403 21.45864868650378 H 0.0 **** 0.06
30481 C 105.94401033508314 15.768032277410033 68.55151644598047 C 0.0 **** -0.24
30482 H 106.0036281179534 15.647370716281447 67.46980196410533 H 0.0 **** 0.06
30483 H 106.70326616919978 16.478090170356392 68.8792939218769 H 0.0 **** 0.06
30484 H 106.11286324062272 14.805577482499551 69.03410234889039 H 0.0 **** 0.06
30485 H 104.95559087886193 16.141443239358633 68.82077092850875 H 0.0 **** 0.06
30486 C 20.813975707719692 81.03080696892494 63.56423683292215 C 0.0 **** -0.24
30487 H 19.875705263777604 80.95321066970877 63.01587194673306 H 0.0 **** 0.06
30488 H 21.586402651084825 80.46419742538484 63.044232074056794 H 0.0 **** 0.06
30489 H 20.682188447433532 80.62900891738457 64.56915234029668 H 0.0 **** 0.06
30490 H 21.111780087389718 82.07778892861927 63.62780625562149 H 0.0 **** 0.06
30491 C 17.636662114909257 53.64239897025065 66.33369613402965 C 0.0 **** -0.24
30492 H 18.497401992180983 53.219592101890115 65.81504601341959 H 0.0 **** 0.06
30493 H 16.827838734900126 52.910756360352 66.3503879164713 H 0.0 **** 0.06
30494 H 17.303918782495828 54.540419363263894 65.81278925735796 H 0.0 **** 0.06
30495 H 17.91777836167381 53.89738293894048 67.35565139436542 H 0.0 **** 0.06
30496 C 14.028758983897216 62.983702875777 96.54768272396352 C 0.0 **** -0.24
30497 H 13.90456807921042 63.33360732457254 97.5727169789323 H 0.0 **** 0.06
30498 H 13.209088152444071 62.3124210279355 96.29204019294006 H 0.0 **** 0.06
30499 H 14.976128083695563 62.45260261681375 96.45841915237125 H 0.0 **** 0.06
30500 H 14.024650150100925 63.83715217678389 95.8705032330082 H 0.0 **** 0.06
30501 C 66.68275160846594 102.12832674421115 9.69867943128979 C 0.0 **** -0.24
30502 H 66.34757233749895 103.15816892684326 9.821172836286792 H 0.0 **** 0.06
30503 H 67.41140581769577 102.07766159131542 8.889261851404669 H 0.0 **** 0.06
30504 H 65.8284587898489 101.49467072728194 9.459697098302485 H 0.0 **** 0.06
30505 H 67.14403322283309 101.78413588761065 10.624460530526733 H 0.0 **** 0.06
30506 C 85.42338813410412 43.99415456979996 76.2413294412173 C 0.0 **** -0.24
30507 H 84.70055841787848 44.35714822410847 76.97269156985853 H 0.0 **** 0.06
30508 H 85.80351348368725 44.83286190472854 75.6587469178508 H 0.0 **** 0.06
30509 H 84.93793299827348 43.2793291775862 75.57629431856228 H 0.0 **** 0.06
30510 H 86.2487886338048 43.50576627141215 76.75960987414055 H 0.0 **** 0.06
30511 C 49.48849875024953 99.0168046865835 68.69595665756233 C 0.0 **** -0.24
30512 H 49.16651826864182 98.01653240703251 68.40792436604707 H 0.0 **** 0.06
30513 H 50.574859744228064 99.03811634594501 68.7793490285975 H 0.0 **** 0.06
30514 H 49.044784758842184 99.27896844028476 69.65645432562087 H 0.0 **** 0.06
30515 H 49.16749347389484 99.73270540273506 67.93981219513034 H 0.0 **** 0.06
30516 C 71.14029340602531 3.7204907260593956 33.78679813818056 C 0.0 **** -0.24
30517 H 71.38530636543301 4.682745197925499 33.337008524760684 H 0.0 **** 0.06
30518 H 72.05789704494721 3.166509211386753 33.98278720349795 H 0.0 **** 0.06
30519 H 70.5093336415957 3.1511150094804634 33.10439813074441 H 0.0 **** 0.06
30520 H 70.60703500277737 3.8834055383061497 34.72338820153719 H 0.0 **** 0.06
30521 C 51.257624865497014 61.11657956129925 59.32329318668897 C 0.0 **** -0.24
30522 H 50.46729558020034 60.37438521722002 59.21269994402172 H 0.0 **** 0.06
30523 H 52.20348545833457 60.69332595694921 58.98258816142166 H 0.0 **** 0.06
30524 H 51.34379446485653 61.40300857061722 60.37030026354054 H 0.0 **** 0.06
30525 H 51.01629938712253 61.99492468381949 58.7246851642484 H 0.0 **** 0.06
30526 C 32.623695187113526 39.785738668520025 42.612591103809166 C 0.0 **** -0.24
30527 H 31.76073171375245 39.14459089812931 42.43569780324077 H 0.0 **** 0.06
30528 H 33.50627816323717 39.16888147284055 42.78581425674588 H 0.0 **** 0.06
30529 H 32.43896587297942 40.40954173231552 43.487705707968075 H 0.0 **** 0.06
30530 H 32.78887030086264 40.42097479805773 41.7428572886123 H 0.0 **** 0.06
30531 C 4.647315209153362 85.77555133654542 1.2415900840430174 C 0.0 **** -0.24
30532 H 5.409290337430377 85.61786863818025 2.0051408650406906 H 0.0 **** 0.06
30533 H 3.9709463723847875 84.92100097272045 1.2220304286277797 H 0.0 **** 0.06
30534 H 5.124970489028556 85.88421884806607 0.26791585294047815 H 0.0 **** 0.06
30535 H 4.084018083780279 86.6794741580113 1.4726411024211323 H 0.0 **** 0.06
30536 C 55.02670218815375 18.266063581255793 103.11021345487447 C 0.0 **** -0.24
30537 H 54.569819396360145 17.67216112402535 102.3179194795832 H 0.0 **** 0.06
30538 H 55.279944348516025 19.254044324773574 102.72449437572575 H 0.0 **** 0.06
30539 H 55.93128095556405 17.76906999080441 103.45957042938517 H 0.0 **** 0.06
30540 H 54.32502584040631 18.367080795594703 103.93794621002908 H 0.0 **** 0.06
30541 C 14.911215540172805 18.189068714598733 26.71360160434894 C 0.0 **** -0.24
30542 H 14.42975377857303 18.99330786274811 27.269190152027665 H 0.0 **** 0.06
30543 H 14.200690732006734 17.759986831690185 26.007112438725514 H 0.0 **** 0.06
30544 H 15.245108368049642 17.417435627116447 27.40764748759502 H 0.0 **** 0.06
30545 H 15.76869277206535 18.58575155683127 26.171712185472668 H 0.0 **** 0.06
30546 C 48.927990414133006 12.649048655736152 57.75341783323216 C 0.0 **** -0.24
30547 H 48.71439706409632 11.590102075711428 57.90361368982502 H 0.0 **** 0.06
30548 H 48.00226934834368 13.176245137770508 57.52400977256025 H 0.0 **** 0.06
30549 H 49.6282003795208 12.764783421022827 56.92674309148265 H 0.0 **** 0.06
30550 H 49.36720449221344 13.062677751959995 58.66200560409516 H 0.0 **** 0.06
30551 C 65.21557473025123 11.156682333080521 97.41429768422 C 0.0 **** -0.24
30552 H 65.54288579969571 11.859171518728568 96.64753883333753 H 0.0 **** 0.06
30553 H 64.60917032113437 11.681919756113041 98.15239799087385 H 0.0 **** 0.06
30554 H 66.08674438751868 10.721031335941005 97.90275577676323 H 0.0 **** 0.06
30555 H 64.62354389795914 10.365985576382004 96.95418703703513 H 0.0 **** 0.06
30556 C 0.5303553508869499 35.27986816678637 85.92206893262654 C 0.0 **** -0.24
30557 H -0.32612002192493605 34.85282961607021 86.44411082248384 H 0.0 **** 0.06
30558 H 1.1081353996627712 34.48072638601943 85.45868432521743 H 0.0 **** 0.06
30559 H 1.1571288627597767 35.818262519413324 86.63253298107828 H 0.0 **** 0.06
30560 H 0.17956122382980766 35.96891268982759 85.15274721430838 H 0.0 **** 0.06
30561 C 1.4454841464499282 37.86331338721074 68.30045940379415 C 0.0 **** -0.24
30562 H 1.0279130344666783 38.17507820105027 67.3438216924132 H 0.0 **** 0.06
30563 H 1.961441005228096 36.91081640382234 68.17820255169903 H 0.0 **** 0.06
30564 H 0.6416076707917 37.7498104664687 69.02833538432179 H 0.0 **** 0.06
30565 H 2.149966556165623 38.616621980105634 68.65183152198523 H 0.0 **** 0.06
30566 C 87.99405926755784 63.03234492783298 17.378892567329387 C 0.0 **** -0.24
30567 H 87.84293735356508 63.14630783848756 16.305960006982048 H 0.0 **** 0.06
30568 H 88.16533715407478 61.981216103405956 17.612168822892954 H 0.0 **** 0.06
30569 H 87.10959810111632 63.38326675376089 17.90994717257621 H 0.0 **** 0.06
30570 H 88.85961959407041 63.618914974342516 17.68805861180732 H 0.0 **** 0.06
30571 C 32.579302342799366 12.814485290509936 57.28639371552849 C 0.0 **** -0.24
30572 H 32.82935381753393 13.584459287971299 56.5570330530586 H 0.0 **** 0.06
30573 H 31.59017162673669 12.412331075302461 57.06649342532015 H 0.0 **** 0.06
30574 H 32.580402702123166 13.248204848802914 58.28651363473788 H 0.0 **** 0.06
30575 H 33.317281667383014 12.01400880237668 57.23646772094057 H 0.0 **** 0.06
30576 C 51.43062669321475 22.680891030491154 105.50149920084277 C 0.0 **** -0.24
30577 H 52.144019942428514 23.35226003576483 105.98066148173211 H 0.0 **** 0.06
30578 H 50.9068067591671 23.21389187872572 104.70771616927107 H 0.0 **** 0.06
30579 H 50.71072707292939 22.328364497728984 106.24017727081008 H 0.0 **** 0.06
30580 H 51.962960886145765 21.829830469399923 105.07684530457345 H 0.0 **** 0.06
30581 C 37.1656585740439 17.21272634094413 30.128801771632425 C 0.0 **** -0.24
30582 H 37.807652968613695 16.937732422259216 29.29104684398871 H 0.0 **** 0.06
30583 H 37.1992781037838 16.42765064531619 30.884244416460575 H 0.0 **** 0.06
30584 H 36.14154302760403 17.334132098138014 29.775551566028327 H 0.0 **** 0.06
30585 H 37.51423399189963 18.15033081156821 30.56138554977312 H 0.0 **** 0.06
30586 C 49.7446069256884 68.28708063022033 67.73964798786874 C 0.0 **** -0.24
30587 H 50.38245186589046 67.79987704137147 67.00169864417204 H 0.0 **** 0.06
30588 H 50.34467097600458 68.96347689389596 68.34859950602498 H 0.0 **** 0.06
30589 H 49.28667667467124 67.53257586466206 68.37801314736909 H 0.0 **** 0.06
30590 H 48.96481431796798 68.85302965637864 67.22903175026222 H 0.0 **** 0.06
30591 C 94.1364825409203 7.648787907245406 27.440535763805485 C 0.0 **** -0.24
30592 H 93.66689766637066 6.771778643181989 27.88457229915349 H 0.0 **** 0.06
30593 H 93.5153336906665 8.018277198320021 26.623927824054647 H 0.0 **** 0.06
30594 H 95.12020532407968 7.3782873064678824 27.055050768561102 H 0.0 **** 0.06
30595 H 94.24335928645215 8.426698424566311 28.195769000799487 H 0.0 **** 0.06
30596 C 79.3601911750543 69.4803974949285 4.392368870341528 C 0.0 **** -0.24
30597 H 78.35221630083086 69.29348643173213 4.7623777936028375 H 0.0 **** 0.06
30598 H 80.077067768387 69.32971049021961 5.199612384466548 H 0.0 **** 0.06
30599 H 79.42920966302498 70.50616262465653 4.030889919060343 H 0.0 **** 0.06
30600 H 79.58096232437885 68.7918183880637 3.5769385502596833 H 0.0 **** 0.06
30601 C 77.38882236358086 55.09903135382572 56.94863231410128 C 0.0 **** -0.24
30602 H 78.20384178414952 54.39084043198167 56.79967035931383 H 0.0 **** 0.06
30603 H 77.70785916022504 55.88159092847948 57.63686754294753 H 0.0 **** 0.06
30604 H 76.52639585537827 54.57749610684226 57.36505669060154 H 0.0 **** 0.06
30605 H 77.11563901226577 55.54551263615272 55.99259307694279 H 0.0 **** 0.06
30606 C 48.31286389343222 46.269026052525646 41.09116773979335 C 0.0 **** -0.24
30607 H 47.68260907818319 47.13270984644231 40.87901948334721 H 0.0 **** 0.06
30608 H 48.819998992289555 45.95696763022352 40.17862228714162 H 0.0 **** 0.06
30609 H 47.69573138464878 45.45197346401676 41.463732098508046 H 0.0 **** 0.06
30610 H 49.05394869854297 46.537133399181016 41.84506463696343 H 0.0 **** 0.06
30611 C 71.43774133361467 30.375800406664183 87.56394051936255 C 0.0 **** -0.24
30612 H 71.90183362833187 29.607048442240966 86.9470747232836 H 0.0 **** 0.06
30613 H 72.06720103163411 31.265736924821425 87.57003937100535 H 0.0 **** 0.06
30614 H 71.3239235794367 30.00442158554179 88.5824983272999 H 0.0 **** 0.06
30615 H 70.4579628067209 30.625762007689985 87.15712122724594 H 0.0 **** 0.06
30616 C 6.465987912295448 2.4063068788276274 31.672079525483753 C 0.0 **** -0.24
30617 H 6.1733669827680355 3.2000953515837027 32.35949393245062 H 0.0 **** 0.06
30618 H 6.666094840454079 1.494634517933907 32.23378618072476 H 0.0 **** 0.06
30619 H 7.363916736045743 2.7065661412845294 31.131756545344416 H 0.0 **** 0.06
30620 H 5.6587526682938325 2.22688061919789 30.961870971032255 H 0.0 **** 0.06
30621 C 65.30489764918713 63.59914557835718 88.79388435344632 C 0.0 **** -0.24
30622 H 65.0110887761142 63.24680932264204 89.78164147206957 H 0.0 **** 0.06
30623 H 64.69540035953241 63.10741919351871 88.03541751540877 H 0.0 **** 0.06
30624 H 66.35631244132895 63.36545328149383 88.62318401909042 H 0.0 **** 0.06
30625 H 65.15942978755129 64.67776904176068 88.7341663901145 H 0.0 **** 0.06
30626 C 57.97789555511932 95.58370117976544 46.62195233712174 C 0.0 **** -0.24
30627 H 58.36647542606585 95.50118624633096 45.6068928910538 H 0.0 **** 0.06
30628 H 58.70743324698566 96.09614733423294 47.25006575025321 H 0.0 **** 0.06
30629 H 57.79075850144514 94.58651815837007 47.02112207693068 H 0.0 **** 0.06
30630 H 57.047324112886685 96.15105475865458 46.60882179429609 H 0.0 **** 0.06
30631 C 43.29177309291913 86.44231841350552 6.416681359171989 C 0.0 **** -0.24
30632 H 42.578696609776195 87.15111479513524 5.993803836466569 H 0.0 **** 0.06
30633 H 43.77747092137559 85.89244005654103 5.6100357380526304 H 0.0 **** 0.06
30634 H 42.767381772110156 85.74404971274339 7.06817980231672 H 0.0 **** 0.06
30635 H 44.04309674413719 86.9832347649359 6.992393091245987 H 0.0 **** 0.06
30636 C 13.674741393476694 61.40099527109072 24.736027014344756 C 0.0 **** -0.24
30637 H 13.448278205251455 61.753036316859834 25.7424569595143 H 0.0 **** 0.06
30638 H 14.6354607055396 60.885195070071404 24.74042098629957 H 0.0 **** 0.06
30639 H 13.722475891581297 62.25257896247439 24.056763165023256 H 0.0 **** 0.06
30640 H 12.89420879678832 60.71629434162185 24.4059222432266 H 0.0 **** 0.06
30641 C 50.70471169582888 63.3353383722239 36.40752130482447 C 0.0 **** -0.24
30642 H 51.064431425378416 63.071251895494896 35.412240022498025 H 0.0 **** 0.06
30643 H 51.34737916328609 64.10624388400458 36.832015001175165 H 0.0 **** 0.06
30644 H 50.72381544654752 62.453292045563074 37.04631231473425 H 0.0 **** 0.06
30645 H 49.68419942776967 63.710779316854854 36.33620169466606 H 0.0 **** 0.06
30646 C 72.98752025986886 53.94133238074133 104.13515869815603 C 0.0 **** -0.24
30647 H 73.48249659492882 54.89694353260157 104.30771435678403 H 0.0 **** 0.06
30648 H 73.67208211079219 53.26422937874091 103.62361365123809 H 0.0 **** 0.06
30649 H 72.10218976252608 54.097194929520015 103.51942950179037 H 0.0 **** 0.06
30650 H 72.69327682813014 53.507328037040935 105.09124278586421 H 0.0 **** 0.06
30651 C 57.550049680331114 70.33400366146344 25.347241139291782 C 0.0 **** -0.24
30652 H 56.63509587126666 70.55690460269625 25.89585976034894 H 0.0 **** 0.06
30653 H 58.36700608552916 70.17395350050691 26.051009492827973 H 0.0 **** 0.06
30654 H 57.792926550831965 71.16992734755189 24.691880105137244 H 0.0 **** 0.06
30655 H 57.40310101060708 69.43390137262924 24.748816751696864 H 0.0 **** 0.06
30656 C 43.719022811692 48.20689528945712 85.53469357258788 C 0.0 **** -0.24
30657 H 44.273219818010446 49.033089987788514 85.0892772425478 H 0.0 **** 0.06
30658 H 44.105092817158 47.262101947303165 85.15116882792397 H 0.0 **** 0.06
30659 H 42.66318393811528 48.29886475610374 85.27883887602216 H 0.0 **** 0.06
30660 H 43.83459065950532 48.23407048293927 86.61784557129894 H 0.0 **** 0.06
30661 C 59.458854709421075 82.08211142525806 40.594107984987275 C 0.0 **** -0.24
30662 H 60.17151376815201 81.26317873261914 40.49713370686824 H 0.0 **** 0.06
30663 H 59.86051482463432 82.97147207338998 40.10628158515446 H 0.0 **** 0.06
30664 H 59.28690646101501 82.29187357092744 41.64899294014807 H 0.0 **** 0.06
30665 H 58.51727139395956 81.80265224289822 40.12088588455183 H 0.0 **** 0.06
30666 C 50.20181737202546 91.17196288884759 49.7111157701213 C 0.0 **** -0.24
30667 H 50.37977793823052 90.2834795456701 49.10533685814474 H 0.0 **** 0.06
30668 H 51.13970736050902 91.70996819573531 49.85124926070458 H 0.0 **** 0.06
30669 H 49.8030413663069 90.87655337371507 50.681273795887805 H 0.0 **** 0.06
30670 H 49.485072004592894 91.81858744189532 49.204517812454085 H 0.0 **** 0.06
30671 C 66.60857715028706 33.3433731161293 104.33018704950723 C 0.0 **** -0.24
30672 H 65.6434459481109 33.23994403851651 104.82565135237422 H 0.0 **** 0.06
30673 H 67.40712507552158 33.15028402764955 105.047428000568 H 0.0 **** 0.06
30674 H 66.70913318108362 34.35600042327604 103.93802485771408 H 0.0 **** 0.06
30675 H 66.67433419264401 32.628053084130585 103.51078608583953 H 0.0 **** 0.06
30676 C 104.65361437781343 7.435082333565534 20.62976868716993 C 0.0 **** -0.24
30677 H 104.81029088240265 6.855484302679951 19.719386703142845 H 0.0 **** 0.06
30678 H 104.18293932304594 8.3854864050732 20.377655988208886 H 0.0 **** 0.06
30679 H 105.61327206415635 7.621418067221532 21.110226544897614 H 0.0 **** 0.06
30680 H 104.00787927792284 6.878173581266513 21.30881547151064 H 0.0 **** 0.06
30681 C 30.84012340734813 58.29690892412572 80.45852995574111 C 0.0 **** -0.24
30682 H 29.956003371027748 58.54296139263619 79.87003384579154 H 0.0 **** 0.06
30683 H 30.536808987863708 58.00521475553569 81.46467340595407 H 0.0 **** 0.06
30684 H 31.493499220305864 59.16837595371703 80.51357566119535 H 0.0 **** 0.06
30685 H 31.373097382674132 57.471901055689386 79.98544277063772 H 0.0 **** 0.06
30686 C 105.32236860849315 101.22806852464879 82.04849728938736 C 0.0 **** -0.24
30687 H 105.81259519578055 102.1901655973612 82.19719100556507 H 0.0 **** 0.06
30688 H 105.43152517375208 100.92148010616006 81.00727052084292 H 0.0 **** 0.06
30689 H 104.2635065604033 101.3189748744721 82.29120682326491 H 0.0 **** 0.06
30690 H 105.7813212250131 100.48283198139752 82.69716564611917 H 0.0 **** 0.06
30691 C 4.301004593544619 26.9506699737845 77.9965956486447 C 0.0 **** -0.24
30692 H 4.991548748417529 27.375852773998503 77.267749232585 H 0.0 **** 0.06
30693 H 4.767883108978921 26.952055338709272 78.98172013608502 H 0.0 **** 0.06
30694 H 4.057754008658904 25.927365870849997 77.71118794329169 H 0.0 **** 0.06
30695 H 3.3897118451873496 27.547439477305204 78.02407943999407 H 0.0 **** 0.06
30696 C 43.48840857729317 89.70507831947441 30.191676901501282 C 0.0 **** -0.24
30697 H 42.47234602650053 89.78721458081458 30.579138238698846 H 0.0 **** 0.06
30698 H 44.082592868806046 90.54620083424311 30.54826858899621 H 0.0 **** 0.06
30699 H 43.46328431715688 89.71268882769687 29.102615610105104 H 0.0 **** 0.06
30700 H 43.93344989433115 88.77188013786835 30.538000626013883 H 0.0 **** 0.06
30701 C 50.81478158413591 40.916077514725714 14.84412521601513 C 0.0 **** -0.24
30702 H 50.47636342980192 41.10908568114681 13.825567529822877 H 0.0 **** 0.06
30703 H 51.88820250890729 40.730275453384266 14.839911156352457 H 0.0 **** 0.06
30704 H 50.29496266710389 40.04293666517586 15.23879605239415 H 0.0 **** 0.06
30705 H 50.59691462841394 41.78235907819801 15.46880829672807 H 0.0 **** 0.06
30706 C 47.76397075314147 89.5663639338768 64.7806440446517 C 0.0 **** -0.24
30707 H 46.798885589306565 89.98837050490616 65.05978873026629 H 0.0 **** 0.06
30708 H 47.89495689930676 88.6035394647714 65.27560912223925 H 0.0 **** 0.06
30709 H 48.5599116929201 90.24475346663552 65.08922856941541 H 0.0 **** 0.06
30710 H 47.8019338155984 89.42858088447221 63.7003823579858 H 0.0 **** 0.06
30711 C 57.074798027273516 42.294297116287964 86.74240145329496 C 0.0 **** -0.24
30712 H 56.47094291130031 41.496705233239084 86.30931611992366 H 0.0 **** 0.06
30713 H 57.75730611633742 42.683650265234036 85.98520024904491 H 0.0 **** 0.06
30714 H 57.64892040100858 41.90143230319944 87.58113526988112 H 0.0 **** 0.06
30715 H 56.423412861995075 43.095077786567714 87.09049530306369 H 0.0 **** 0.06
30716 C 34.37024518682864 101.79758134770897 97.23606986521864 C 0.0 **** -0.24
30717 H 33.37546928259205 101.76492033167222 97.67908093787236 H 0.0 **** 0.06
30718 H 35.05619271016002 102.29641551119134 97.92116855027666 H 0.0 **** 0.06
30719 H 34.33121228856376 102.34652204976206 96.29526210587017 H 0.0 **** 0.06
30720 H 34.71778250634716 100.78078800153277 97.0490407756283 H 0.0 **** 0.06
30721 C 84.31446744421197 83.14598959789583 70.52966275595136 C 0.0 **** -0.24
30722 H 83.76454667054605 84.05074494623435 70.79164878616896 H 0.0 **** 0.06
30723 H 84.59632786426192 83.18504115301627 69.47759366416219 H 0.0 **** 0.06
30724 H 83.68294435655139 82.27479579443369 70.70513547836211 H 0.0 **** 0.06
30725 H 85.21154905348328 83.07537074266341 71.1451473553519 H 0.0 **** 0.06
30726 C 72.3726743483508 24.314070890533515 47.66138535587703 C 0.0 **** -0.24
30727 H 72.49962541180332 24.395890438673746 48.74043014288924 H 0.0 **** 0.06
30728 H 71.49148343396331 24.879497202433782 47.35458987359911 H 0.0 **** 0.06
30729 H 72.24531541557613 23.26673637563117 47.388513958061964 H 0.0 **** 0.06
30730 H 73.25372984829093 24.714665775812904 47.16044261297483 H 0.0 **** 0.06
30731 C 16.17774703380705 56.81034322934551 78.47180216974378 C 0.0 **** -0.24
30732 H 15.390891256299398 57.2381858850703 79.09463236088396 H 0.0 **** 0.06
30733 H 16.453464567989343 55.82910136092363 78.85844018575104 H 0.0 **** 0.06
30734 H 17.048710002670177 57.466164750247565 78.48616820184806 H 0.0 **** 0.06
30735 H 15.81530175293102 56.70946861219462 77.44882688485791 H 0.0 **** 0.06
30736 C 20.626628972420598 9.705589724337585 3.1908711886580647 C 0.0 **** -0.24
30737 H 19.736555781311026 9.128745410639482 3.4402384203887095 H 0.0 **** 0.06
30738 H 21.41908885133583 9.480179088415596 3.9055166658683333 H 0.0 **** 0.06
30739 H 20.392819170028986 10.769214735955515 3.230234765323047 H 0.0 **** 0.06
30740 H 20.958248375665857 9.443420216426233 2.185415819784481 H 0.0 **** 0.06
30741 C 18.300214273736948 69.29384251653431 63.351085551653796 C 0.0 **** -0.24
30742 H 17.693182136942163 68.55558382017318 63.87607777708308 H 0.0 **** 0.06
30743 H 17.951663448215264 70.29576529062615 63.60375298834526 H 0.0 **** 0.06
30744 H 18.210942189285202 69.13839056402202 62.27573820717413 H 0.0 **** 0.06
30745 H 19.343065360240445 69.1846669144739 63.6490100585699 H 0.0 **** 0.06
30746 C 101.46386142951143 68.40166598194267 30.985056588666637 C 0.0 **** -0.24
30747 H 100.75475115473942 67.80243083253319 31.55784245506083 H 0.0 **** 0.06
30748 H 101.32604543162938 68.20723647762733 29.92142712973662 H 0.0 **** 0.06
30749 H 102.48045630374659 68.13583324637733 31.274781500052576 H 0.0 **** 0.06
30750 H 101.29191253103964 69.45852745003518 31.18753644952743 H 0.0 **** 0.06
30751 C 16.984384538167163 31.19422091154827 0.26687993628091533 C 0.0 **** -0.24
30752 H 18.03394833018703 31.347460699224627 0.01618467789963063 H 0.0 **** 0.06
30753 H 16.357252544150015 31.67364181647752 -0.4856689512847936 H 0.0 **** 0.06
30754 H 16.776833363899314 31.630197757355837 1.244030590712299 H 0.0 **** 0.06
30755 H 16.768915268668266 30.12637318386328 0.2931458842445096 H 0.0 **** 0.06
30756 C 0.9944642931986323 39.510816130152705 52.67681955197097 C 0.0 **** -0.24
30757 H 0.010954290382983345 39.9747536038477 52.59532199760995 H 0.0 **** 0.06
30758 H 0.8791129038060603 38.43803513674682 52.82573437089172 H 0.0 **** 0.06
30759 H 1.528073358119002 39.940598889053604 53.524828322453544 H 0.0 **** 0.06
30760 H 1.558134470549021 39.69311608103257 51.76239606066256 H 0.0 **** 0.06
30761 C 72.04713167037733 9.413404023818146 73.43546237480285 C 0.0 **** -0.24
30762 H 72.79802372198502 10.177007451588054 73.23764037079624 H 0.0 **** 0.06
30763 H 71.7988728881576 9.414516501613093 74.49755941345937 H 0.0 **** 0.06
30764 H 72.4410570113318 8.436011404733676 73.15600536076616 H 0.0 **** 0.06
30765 H 71.1507553439073 9.623889546222301 72.85268540012692 H 0.0 **** 0.06
30766 C 11.532360817564339 43.69672958085221 10.107993891246338 C 0.0 **** -0.24
30767 H 10.806239226794501 42.94661812359266 9.79516018183989 H 0.0 **** 0.06
30768 H 12.140236918200237 43.29723384476813 10.919883981326734 H 0.0 **** 0.06
30769 H 11.007533051903495 44.58891343920044 10.450896980693585 H 0.0 **** 0.06
30770 H 12.174179225892054 43.9541403800705 9.26484054557335 H 0.0 **** 0.06
30771 C 25.266786034607264 82.95250873595738 48.70603357650262 C 0.0 **** -0.24
30772 H 24.81455377670042 83.86430946197275 49.09777479966192 H 0.0 **** 0.06
30773 H 24.766878495965727 82.66916030087644 47.780189749943446 H 0.0 **** 0.06
30774 H 25.159757531414186 82.15088183858194 49.43709783031627 H 0.0 **** 0.06
30775 H 26.324546383031617 83.12711950008176 48.51004934843231 H 0.0 **** 0.06
30776 C 45.053888601455355 66.58185506298611 23.786443807929942 C 0.0 **** -0.24
30777 H 44.20859151131026 65.93097541451709 23.565837457898 H 0.0 **** 0.06
30778 H 44.72431817957107 67.39813231696945 24.43165124152489 H 0.0 **** 0.06
30779 H 45.4502909338687 66.99102914618038 22.857247670735802 H 0.0 **** 0.06
30780 H 45.8315279447915 66.01001679124306 24.291959100966437 H 0.0 **** 0.06
30781 C 83.99586772257766 41.47090194071751 59.52946154536642 C 0.0 **** -0.24
30782 H 84.24607064594352 42.532288887891326 59.5294346674937 H 0.0 **** 0.06
30783 H 83.34744925053411 41.25095594103453 58.6814839868425 H 0.0 **** 0.06
30784 H 83.48091234522423 41.219833318250494 60.45604783512367 H 0.0 **** 0.06
30785 H 84.90986556473064 40.88258184018861 59.45055594119259 H 0.0 **** 0.06
30786 C 51.644412554837544 8.018734367254098 75.19771186843042 C 0.0 **** -0.24
30787 H 52.21199753242983 8.201767632085847 74.2858463187413 H 0.0 **** 0.06
30788 H 50.88859409756637 7.256594736249269 75.00772672468435 H 0.0 **** 0.06
30789 H 51.15865708464324 8.94080212150726 75.51500405074046 H 0.0 **** 0.06
30790 H 52.31904436054844 7.6745156445902865 75.9821933197548 H 0.0 **** 0.06
30791 C 9.345147682589161 93.10216253022192 48.660482009202724 C 0.0 **** -0.24
30792 H 9.661533332199118 92.14401769613406 49.07292753508176 H 0.0 **** 0.06
30793 H 9.266460058758714 93.02052567045567 47.57572191803041 H 0.0 **** 0.06
30794 H 10.07733089856216 93.86684768778032 48.91540935256239 H 0.0 **** 0.06
30795 H 8.375098429685282 93.37414038119435 49.075808595608066 H 0.0 **** 0.06
30796 C 37.58565412485251 24.088980596929446 18.78271228519264 C 0.0 **** -0.24
30797 H 37.55088932980436 23.91162245167982 19.857914235160045 H 0.0 **** 0.06
30798 H 37.101661620233585 25.0391284770933 18.556595122751187 H 0.0 **** 0.06
30799 H 37.06624114013539 23.283052601175427 18.264509706735435 H 0.0 **** 0.06
30800 H 38.624830009621974 24.12251227022466 18.454444337566397 H 0.0 **** 0.06
30801 C 32.12285368621131 61.18742687959899 32.46162663221722 C 0.0 **** -0.24
30802 H 32.99445923275124 60.989898981529166 33.085766212292384 H 0.0 **** 0.06
30803 H 32.0007138589461 62.26375404455129 32.33824742930026 H 0.0 **** 0.06
30804 H 31.233852551478122 60.77198699742489 32.93716468287946 H 0.0 **** 0.06
30805 H 32.263199407991586 60.72302559302169 31.48583607864861 H 0.0 **** 0.06
30806 C 32.138643218515455 40.87945302095335 100.54525233796919 C 0.0 **** -0.24
30807 H 32.950343013982746 41.578461516223285 100.34675242317849 H 0.0 **** 0.06
30808 H 31.314715690060638 41.4081182946245 101.02611846422033 H 0.0 **** 0.06
30809 H 32.49471255527513 40.08757838801523 101.20394033908701 H 0.0 **** 0.06
30810 H 31.794112823944857 40.44583004256782 99.60698927280484 H 0.0 **** 0.06
30811 C 12.708548935846252 6.928405334000274 67.51942763706222 C 0.0 **** -0.24
30812 H 12.806489615531248 7.770434221538437 66.83381206738345 H 0.0 **** 0.06
30813 H 12.498860737784568 6.021983501216283 66.95077918146562 H 0.0 **** 0.06
30814 H 11.891375369080833 7.119214497306075 68.2139064759141 H 0.0 **** 0.06
30815 H 13.637163954908715 6.802796390235443 68.07494017715344 H 0.0 **** 0.06
30816 C 29.008907012787382 77.61505645062238 93.26096386778272 C 0.0 **** -0.24
30817 H 29.471706051988562 77.42204925757375 94.229729094585 H 0.0 **** 0.06
30818 H 28.951926907098496 76.68571779197305 92.69445206661516 H 0.0 **** 0.06
30819 H 29.60928645221074 78.34041555153439 92.71099709149645 H 0.0 **** 0.06
30820 H 28.00569451767103 78.01314694780433 93.41037040364743 H 0.0 **** 0.06
30821 C 81.01945754539031 43.764841085002786 78.61226979546903 C 0.0 **** -0.24
30822 H 80.5854611401719 44.456114453574656 77.8896205218366 H 0.0 **** 0.06
30823 H 80.91688950792275 42.74309832418291 78.24489220023858 H 0.0 **** 0.06
30824 H 80.49965625063669 43.861867468602924 79.5654042040155 H 0.0 **** 0.06
30825 H 82.07495425557158 43.99780267900158 78.74904789841828 H 0.0 **** 0.06
30826 C 55.43203686169602 87.89538292077543 43.43178413130093 C 0.0 **** -0.24
30827 H 55.12547929999619 87.33661628033616 44.31595945541616 H 0.0 **** 0.06
30828 H 55.32501721286775 88.96392135157538 43.62285793690603 H 0.0 **** 0.06
30829 H 54.80342965413223 87.61240469459119 42.587186575751105 H 0.0 **** 0.06
30830 H 56.473602010199045 87.66891692090991 43.202361092394256 H 0.0 **** 0.06
30831 C 33.13985566039765 23.46655891728632 2.215443403012923 C 0.0 **** -0.24
30832 H 32.59220453705846 23.023440251236643 3.0478356486108567 H 0.0 **** 0.06
30833 H 33.23931300420492 24.540027116927206 2.3755932011872574 H 0.0 **** 0.06
30834 H 32.596937054574646 23.286116997350867 1.2875474940680816 H 0.0 **** 0.06
30835 H 34.12969537468061 23.01464431533926 2.1502034815001236 H 0.0 **** 0.06
30836 C 25.854436042349533 32.24486400688244 15.504497592383018 C 0.0 **** -0.24
30837 H 26.40650535381056 31.365465054037315 15.837711806963569 H 0.0 **** 0.06
30838 H 26.238827983937853 33.12876366361098 16.015163841743174 H 0.0 **** 0.06
30839 H 24.797506273620485 32.11993541146518 15.738251699467924 H 0.0 **** 0.06
30840 H 25.977895878035298 32.36395666283886 14.428671278875129 H 0.0 **** 0.06
30841 C 44.87174492243968 88.97497925410187 96.47845332549515 C 0.0 **** -0.24
30842 H 45.54445374771185 88.14630414775992 96.25636070273899 H 0.0 **** 0.06
30843 H 44.17271906531794 89.10609947257463 95.6521912201448 H 0.0 **** 0.06
30844 H 45.45253070020865 89.88765214444989 96.61116644978085 H 0.0 **** 0.06
30845 H 44.31905090518977 88.75952359399018 97.39244066157364 H 0.0 **** 0.06
30846 C 38.583764214965605 94.46877759305119 34.44422241945051 C 0.0 **** -0.24
30847 H 38.42251200441905 93.6557367760544 33.73601829334032 H 0.0 **** 0.06
30848 H 39.62996584777912 94.77544123652717 34.41221726815451 H 0.0 **** 0.06
30849 H 38.3351609292425 94.12895243221323 35.44896911076711 H 0.0 **** 0.06
30850 H 37.94861946558518 95.31331487347944 34.17834913856308 H 0.0 **** 0.06
30851 C 36.06318876621201 0.5585282557581195 15.896688765721677 C 0.0 **** -0.24
30852 H 35.46997321788665 -0.22620010875897378 15.42723545193408 H 0.0 **** 0.06
30853 H 35.93756264151074 0.511028402385648 16.978185195766102 H 0.0 **** 0.06
30854 H 35.73064654072826 1.5310373560885182 15.534663360649603 H 0.0 **** 0.06
30855 H 37.11521057188223 0.41797483863314255 15.645438621416218 H 0.0 **** 0.06
30856 C 93.57896293548916 19.724835512091776 45.38622119856527 C 0.0 **** -0.24
30857 H 94.27454308224085 20.510304771168702 45.08993412201091 H 0.0 **** 0.06
30858 H 92.5727226174329 19.988348585818315 45.0615830078804 H 0.0 **** 0.06
30859 H 93.59486899281754 19.61625585353499 46.47106828489773 H 0.0 **** 0.06
30860 H 93.8760095028388 18.783266908829734 44.92347650964656 H 0.0 **** 0.06
30861 C 80.89381575991501 71.8034107660011 76.27063355831382 C 0.0 **** -0.24
30862 H 81.69041689060145 71.20007691197554 75.83426714369813 H 0.0 **** 0.06
30863 H 80.84243084844758 72.7638909176975 75.75672089059653 H 0.0 **** 0.06
30864 H 81.09994247688377 71.9663900016493 77.3279860084732 H 0.0 **** 0.06
30865 H 79.94252062688139 71.28144916076255 76.16193944033628 H 0.0 **** 0.06
30866 C 5.084824780845395 30.36058415335536 80.73023868636699 C 0.0 **** -0.24
30867 H 4.930939096332281 29.822860117550853 81.66628291947046 H 0.0 **** 0.06
30868 H 4.49763866172384 29.890596952379347 79.94081533049444 H 0.0 **** 0.06
30869 H 6.141887115302154 30.33071726158999 80.46467903394696 H 0.0 **** 0.06
30870 H 4.7697825769892574 31.39691499927516 80.85077282742554 H 0.0 **** 0.06
30871 C 101.98105358551209 95.51540010001939 6.736754228722447 C 0.0 **** -0.24
30872 H 102.89531174921615 95.63742145482186 6.155463826414888 H 0.0 **** 0.06
30873 H 101.50657916141131 94.56988720651286 6.4724738169277884 H 0.0 **** 0.06
30874 H 101.29920667815406 96.33702350101915 6.5186889566441835 H 0.0 **** 0.06
30875 H 102.2233534753509 95.51589382497953 7.7989567401908175 H 0.0 **** 0.06
30876 C 35.21591066686341 84.78497736146915 68.81374637511607 C 0.0 **** -0.24
30877 H 36.03470979314709 85.29906616990914 69.3173696537304 H 0.0 **** 0.06
30878 H 34.666790529846295 85.49582350952943 68.19710264547047 H 0.0 **** 0.06
30879 H 34.54621987762385 84.3543967417889 69.55827259274605 H 0.0 **** 0.06
30880 H 35.618512093942954 83.99118319793995 68.18423573855392 H 0.0 **** 0.06
30881 C 76.28090771287143 107.00964419823349 79.9256950860811 C 0.0 **** -0.24
30882 H 76.87677401949608 107.74255804001655 79.38206990630877 H 0.0 **** 0.06
30883 H 75.72882943189632 106.39272575316845 79.21569721684821 H 0.0 **** 0.06
30884 H 75.57962893763874 107.52584534030741 80.58073793378951 H 0.0 **** 0.06
30885 H 76.93798847711855 106.37773126177812 80.52295181700246 H 0.0 **** 0.06
30886 C 22.3109154992803 72.59490536185257 64.68092925063368 C 0.0 **** -0.24
30887 H 22.455945170545178 72.71622752988418 65.75361324652391 H 0.0 **** 0.06
30888 H 22.76766945646581 71.66061783441069 64.35498856597553 H 0.0 **** 0.06
30889 H 22.775359957875082 73.42895528590839 64.15455315796041 H 0.0 **** 0.06
30890 H 21.24343905941862 72.57454342537261 64.45858220883349 H 0.0 **** 0.06
30891 C 44.90907860270871 37.68768217343822 38.270593779552044 C 0.0 **** -0.24
30892 H 44.52260643426637 36.74890599567621 38.667124041857875 H 0.0 **** 0.06
30893 H 45.46331731642042 38.21060294280025 39.05000254558115 H 0.0 **** 0.06
30894 H 44.07895167489329 38.30910668022885 37.93446645154992 H 0.0 **** 0.06
30895 H 45.571983353785136 37.48105091103545 37.429526846707176 H 0.0 **** 0.06
30896 C 72.82792605218047 57.15624579661704 70.9904248538355 C 0.0 **** -0.24
30897 H 72.59575988667036 58.144567862607786 71.38746022089111 H 0.0 **** 0.06
30898 H 71.99162465908421 56.80216834827069 70.3865226178254 H 0.0 **** 0.06
30899 H 72.9991048065235 56.46458846903509 71.81537375439153 H 0.0 **** 0.06
30900 H 73.72400798136005 57.2142383448614 70.37279815965425 H 0.0 **** 0.06
30901 C 89.50274585902272 71.8299975037529 93.2102555849621 C 0.0 **** -0.24
30902 H 88.69987837708064 71.41782282460764 92.60056922292654 H 0.0 **** 0.06
30903 H 89.692011231464 71.16995570933682 94.0569380325057 H 0.0 **** 0.06
30904 H 89.21131352257922 72.81553439164941 93.57586059739202 H 0.0 **** 0.06
30905 H 90.4071544933852 71.9187101825371 92.60886905218153 H 0.0 **** 0.06
30906 C 45.518682219252895 60.43786806365591 28.78477124048237 C 0.0 **** -0.24
30907 H 45.39140586524982 61.37358417388185 28.239661311048337 H 0.0 **** 0.06
30908 H 46.54476739279937 60.36499057342962 29.14508053801751 H 0.0 **** 0.06
30909 H 45.30519622594767 59.599468784290195 28.12055880581704 H 0.0 **** 0.06
30910 H 44.83226886829942 60.41412139335074 29.63072956152712 H 0.0 **** 0.06
30911 C 47.91861601240171 20.728523932778888 33.38626857335608 C 0.0 **** -0.24
30912 H 48.35688794089128 20.876132612434763 32.39855851300213 H 0.0 **** 0.06
30913 H 47.02783673414956 20.10689503586154 33.298613135458226 H 0.0 **** 0.06
30914 H 47.648361600307084 21.69461950152287 33.81175721078061 H 0.0 **** 0.06
30915 H 48.64398502974626 20.235385880346588 34.03510943227822 H 0.0 **** 0.06
30916 C 27.88750614379895 95.4612671383232 87.74254329449944 C 0.0 **** -0.24
30917 H 28.49907174925466 95.07632233500254 86.92593766199033 H 0.0 **** 0.06
30918 H 27.718965228714254 96.5281459469648 87.59649101387377 H 0.0 **** 0.06
30919 H 28.402999235675566 95.30002438449918 88.68876700291608 H 0.0 **** 0.06
30920 H 26.93062441867218 94.93935802901859 87.75636203635489 H 0.0 **** 0.06
30921 C 105.91982506767883 10.15361038372967 33.05294801832275 C 0.0 **** -0.24
30922 H 106.50402073947441 9.765788409997185 33.88763433924265 H 0.0 **** 0.06
30923 H 105.75920502549926 9.35994472094336 32.32260578954515 H 0.0 **** 0.06
30924 H 106.45922254407904 10.975620809984093 32.58287897399606 H 0.0 **** 0.06
30925 H 104.9576828864698 10.511576630190774 33.418509598253024 H 0.0 **** 0.06
30926 C 75.8058863365524 51.97054449290615 25.410529413729634 C 0.0 **** -0.24
30927 H 75.24249434117331 51.24176562715524 24.827617292166664 H 0.0 **** 0.06
30928 H 75.29264268849478 52.15461029689873 26.35509942685188 H 0.0 **** 0.06
30929 H 75.88201102366422 52.90254812651555 24.85032768837425 H 0.0 **** 0.06
30930 H 76.80511232353123 51.58292384861769 25.60858335155463 H 0.0 **** 0.06
30931 C 38.147490366151565 36.23107770512561 47.159491636175744 C 0.0 **** -0.24
30932 H 37.60267148472943 35.299276659102205 47.30919092198974 H 0.0 **** 0.06
30933 H 37.61342372734707 36.8522932130767 46.43939101963667 H 0.0 **** 0.06
30934 H 39.145203416941385 36.011119142531285 46.77979096338646 H 0.0 **** 0.06
30935 H 38.22822275818428 36.76172495013423 48.107645338554335 H 0.0 **** 0.06
30936 C 21.279764349417007 94.94581276590813 62.45418858038212 C 0.0 **** -0.24
30937 H 20.206628428578455 94.83186071178935 62.30235672733477 H 0.0 **** 0.06
30938 H 21.81177076304732 94.58084276119641 61.575151142395384 H 0.0 **** 0.06
30939 H 21.585463366566785 94.3704464593404 63.32861495137536 H 0.0 **** 0.06
30940 H 21.51414050320139 95.99795120289573 62.61114769722414 H 0.0 **** 0.06
30941 C 101.79453680211729 65.44570730974016 28.412026180120552 C 0.0 **** -0.24
30942 H 102.55730648286678 65.29716186434564 29.175969465954154 H 0.0 **** 0.06
30943 H 100.89953583531899 65.86893877835678 28.86873082165463 H 0.0 **** 0.06
30944 H 101.54977592015729 64.48759406679252 27.952254621864917 H 0.0 **** 0.06
30945 H 102.17157523270498 66.12833590640713 27.649983554998972 H 0.0 **** 0.06
30946 C 104.40113711701238 61.56583100231414 64.54306369197565 C 0.0 **** -0.24
30947 H 105.35133789856758 61.11519817188797 64.83205209471078 H 0.0 **** 0.06
30948 H 104.4327931115456 61.83415124926137 63.48677259568012 H 0.0 **** 0.06
30949 H 104.22631072011063 62.460335209224795 65.14072049358646 H 0.0 **** 0.06
30950 H 103.59481207316577 60.851583337014844 64.71218477525917 H 0.0 **** 0.06
30951 C 98.39752833775633 2.380113064172832 51.56668906905054 C 0.0 **** -0.24
30952 H 99.34453473635207 2.7022744328606905 51.99790545281968 H 0.0 **** 0.06
30953 H 98.31240471240771 1.2964827361104767 51.64413556655216 H 0.0 **** 0.06
30954 H 98.35765871274978 2.673351654328002 50.5172957767865 H 0.0 **** 0.06
30955 H 97.57523227088396 2.8493756513669553 52.10649504767948 H 0.0 **** 0.06
30956 C 83.90197427247 100.16118531046773 20.755864068665176 C 0.0 **** -0.24
30957 H 84.98381821961016 100.28288463233646 20.811412827966933 H 0.0 **** 0.06
30958 H 83.55360107876305 99.61075280304611 21.630419915893043 H 0.0 **** 0.06
30959 H 83.64570491602706 99.60874704077126 19.851841014100444 H 0.0 **** 0.06
30960 H 83.42721807188337 101.14223712659198 20.72969898637004 H 0.0 **** 0.06
30961 C 32.651534021145935 51.291900044953486 64.93720944538217 C 0.0 **** -0.24
30962 H 31.918886907049796 51.96621581111401 65.38022992382821 H 0.0 **** 0.06
30963 H 32.295555497051055 50.956969268588814 63.96304500178297 H 0.0 **** 0.06
30964 H 32.791377990438804 50.428980792030956 65.58947304621057 H 0.0 **** 0.06
30965 H 33.60058933486344 51.81459414799807 64.81814394694442 H 0.0 **** 0.06
30966 C 12.78448926023762 62.46324708449686 49.80514436963284 C 0.0 **** -0.24
30967 H 13.639987662512766 63.11179894745925 49.61320758614875 H 0.0 **** 0.06
30968 H 11.889324751290417 63.07199249476514 49.933636581066594 H 0.0 **** 0.06
30969 H 12.963817898668793 61.885140744828504 50.711331425859385 H 0.0 **** 0.06
30970 H 12.646237987600855 61.785460770278576 48.962590502478065 H 0.0 **** 0.06
30971 C 87.16538391202688 97.18862346611095 38.00029198119182 C 0.0 **** -0.24
30972 H 88.15541285851803 97.61438791017574 38.168265496070816 H 0.0 **** 0.06
30973 H 87.23679549068454 96.37789620843469 37.27544000119002 H 0.0 **** 0.06
30974 H 86.49898892890344 97.96253866562049 37.617318390630075 H 0.0 **** 0.06
30975 H 86.77184696368023 96.8029439705791 38.94025775752732 H 0.0 **** 0.06
30976 C 63.5814554306897 44.19165276965123 45.818028568075825 C 0.0 **** -0.24
30977 H 63.878458681971495 45.12047881811725 45.33167178685405 H 0.0 **** 0.06
30978 H 62.6532986304658 44.348997716184726 46.367151699892965 H 0.0 **** 0.06
30979 H 64.36425337651612 43.87810436677506 46.508644582411314 H 0.0 **** 0.06
30980 H 63.43168826393388 43.419026063316835 45.063072587434306 H 0.0 **** 0.06
30981 C 63.242720178045346 26.11919844112191 39.59742789940892 C 0.0 **** -0.24
30982 H 62.48645308452117 26.320487075523943 40.355768621099 H 0.0 **** 0.06
30983 H 62.79191364762336 25.566186216240283 38.77345359579721 H 0.0 **** 0.06
30984 H 64.04799705348057 25.52899611145733 40.03397461863958 H 0.0 **** 0.06
30985 H 63.644225018585445 27.063095826333665 39.22634653779513 H 0.0 **** 0.06
30986 C 68.43994761182766 66.29865854861123 71.12917008032417 C 0.0 **** -0.24
30987 H 69.00611567368497 65.75344790434906 70.37393250831792 H 0.0 **** 0.06
30988 H 68.20303656659604 65.62988265006008 71.95715782210382 H 0.0 **** 0.06
30989 H 67.5171782730237 66.67499571906455 70.68888297247196 H 0.0 **** 0.06
30990 H 69.03549111393394 67.1352344843809 71.49585712530765 H 0.0 **** 0.06
30991 C 58.67148172253121 73.01105246658898 18.0898654377946 C 0.0 **** -0.24
30992 H 59.22026160754916 72.63027034261066 17.228288780734914 H 0.0 **** 0.06
30993 H 58.86455888666461 72.37488495546079 18.9539955446989 H 0.0 **** 0.06
30994 H 57.60399833490936 73.01143659170278 17.869067374610125 H 0.0 **** 0.06
30995 H 58.998040404287735 74.0282428510455 18.307249609388805 H 0.0 **** 0.06
30996 C 86.71550348168762 37.363979399733196 26.349675471783655 C 0.0 **** -0.24
30997 H 85.73138228047651 37.16205407092884 26.77121109021317 H 0.0 **** 0.06
30998 H 86.98845964435571 36.56259652038835 25.663378084509077 H 0.0 **** 0.06
30999 H 87.44993667310109 37.420895167400495 27.153021091732853 H 0.0 **** 0.06
31000 H 86.69217719042335 38.3116935575846 25.81159139584753 H 0.0 **** 0.06
31001 C 28.943038572150968 55.086238544203525 46.040718060203375 C 0.0 **** -0.24
31002 H 29.35432512646163 55.705942923002624 46.83717680637582 H 0.0 **** 0.06
31003 H 27.866752762458745 55.2521109593261 45.96998593031506 H 0.0 **** 0.06
31004 H 29.134858888040412 54.036224309821705 46.26185328342385 H 0.0 **** 0.06
31005 H 29.414012125590602 55.3503072532005 45.09383298910436 H 0.0 **** 0.06
31006 C 37.56531180643695 98.99880421946148 68.27900546373198 C 0.0 **** -0.24
31007 H 38.11985142888592 99.09034268899842 67.34537373864111 H 0.0 **** 0.06
31008 H 36.65893929547664 98.41697180134759 68.10776097769275 H 0.0 **** 0.06
31009 H 37.297177848458546 99.99092008844752 68.64107445253185 H 0.0 **** 0.06
31010 H 38.18546171225765 98.49614321401742 69.02130036620753 H 0.0 **** 0.06
31011 C 27.226323115436074 19.237167362265225 43.01586080231683 C 0.0 **** -0.24
31012 H 26.188192015091886 19.014291862839002 42.77203303633158 H 0.0 **** 0.06
31013 H 27.59482446001728 20.02025070671283 42.35148361411591 H 0.0 **** 0.06
31014 H 27.83070953685771 18.33944604242069 42.88957086507963 H 0.0 **** 0.06
31015 H 27.291405195216228 19.577549057112293 44.049490982635305 H 0.0 **** 0.06
31016 C 73.94013889037211 17.06151639128717 91.18044488246464 C 0.0 **** -0.24
31017 H 73.73104964299938 17.81858529562247 90.42470083569741 H 0.0 **** 0.06
31018 H 74.9815303611208 16.745758860840468 91.10022761222955 H 0.0 **** 0.06
31019 H 73.2867893751517 16.202694279979724 91.02528136087246 H 0.0 **** 0.06
31020 H 73.76252749060544 17.479048295995312 92.17112190876858 H 0.0 **** 0.06
31021 C 86.54275504938906 67.86573026226796 22.716756362921387 C 0.0 **** -0.24
31022 H 86.89742832852298 68.52419042506897 21.923304521668967 H 0.0 **** 0.06
31023 H 87.36521892352656 67.23902509752962 23.063440050232657 H 0.0 **** 0.06
31024 H 85.74144137779093 67.23412423411104 22.33222292003194 H 0.0 **** 0.06
31025 H 86.1682944893968 68.46499837516131 23.54544969088971 H 0.0 **** 0.06
31026 C 45.24413333519035 28.09862234601854 60.75307151241316 C 0.0 **** -0.24
31027 H 44.490210144629486 28.06824523731126 59.96581818166456 H 0.0 **** 0.06
31028 H 44.75974584800166 27.989600529440313 61.72326102915716 H 0.0 **** 0.06
31029 H 45.771296656651316 29.051963171023964 60.713856462474524 H 0.0 **** 0.06
31030 H 45.95355741535142 27.28491593997049 60.606037446114016 H 0.0 **** 0.06
31031 C 97.71938745671378 55.061669560149376 76.48311828771347 C 0.0 **** -0.24
31032 H 98.00346632406504 55.88018260995131 75.82157592254248 H 0.0 **** 0.06
31033 H 98.53916168057074 54.8500747311614 77.1705203634653 H 0.0 **** 0.06
31034 H 97.50374562634462 54.17325017912733 75.88942702204832 H 0.0 **** 0.06
31035 H 96.83271923812772 55.34395562326482 77.05100539614688 H 0.0 **** 0.06
31036 C 55.612189905393066 95.69167697134115 95.87530493841496 C 0.0 **** -0.24
31037 H 54.82893219340156 95.77553954037981 95.12207248866261 H 0.0 **** 0.06
31038 H 55.72782631980825 96.6477015333083 96.387505131287 H 0.0 **** 0.06
31039 H 56.55184100259268 95.42196787119201 95.39354098229367 H 0.0 **** 0.06
31040 H 55.339695118731214 94.92237206483685 96.59824773575173 H 0.0 **** 0.06
31041 C 44.87702368940663 6.852945831794157 80.10929372205817 C 0.0 **** -0.24
31042 H 44.98099415523217 5.771827529434859 80.00908824374943 H 0.0 **** 0.06
31043 H 45.780248838482464 7.339365274091868 79.74254706675862 H 0.0 **** 0.06
31044 H 44.7262393757332 7.10718316292405 81.15761432984957 H 0.0 **** 0.06
31045 H 44.01916657944733 7.189932061664507 79.52572688292389 H 0.0 **** 0.06
31046 C 90.00065032982778 71.22163568700628 19.879503395240135 C 0.0 **** -0.24
31047 H 89.1661003045909 71.36020383522458 19.191899695397254 H 0.0 **** 0.06
31048 H 90.0301116815975 70.18308890902347 20.20932961002171 H 0.0 **** 0.06
31049 H 89.87249790619929 71.87453854463044 20.74284719726215 H 0.0 **** 0.06
31050 H 90.93304357646544 71.46825880572595 19.371683962487694 H 0.0 **** 0.06
31051 C 18.09628956126032 69.08825233409115 23.47521266772361 C 0.0 **** -0.24
31052 H 19.015601601488868 69.18653230924204 22.89902340550134 H 0.0 **** 0.06
31053 H 17.893849931414167 70.02330405596885 23.998453746174675 H 0.0 **** 0.06
31054 H 18.206457376298445 68.28215751627599 24.20106247027104 H 0.0 **** 0.06
31055 H 17.268395664858716 68.86056312835484 22.80256929809218 H 0.0 **** 0.06
31056 C 66.69307011557368 18.614395219051843 74.19778325253293 C 0.0 **** -0.24
31057 H 67.05997528847254 19.231253744439158 73.37800046518038 H 0.0 **** 0.06
31058 H 66.97962390309863 17.576433351409364 74.02769266036884 H 0.0 **** 0.06
31059 H 65.60708170698808 18.68884873653343 74.2509860808802 H 0.0 **** 0.06
31060 H 67.12701325548977 18.962208211901697 75.1360813146663 H 0.0 **** 0.06
31061 C 58.89018704615708 103.2177201237713 58.06756013022686 C 0.0 **** -0.24
31062 H 59.06504349358849 103.76628348022263 57.14095003632304 H 0.0 **** 0.06
31063 H 59.362087866509654 103.7452780087799 58.89607263496648 H 0.0 **** 0.06
31064 H 59.31456608804436 102.21773955949959 57.983709307231834 H 0.0 **** 0.06
31065 H 57.817202915574626 103.1439814775074 58.24731390118729 H 0.0 **** 0.06
31066 C 98.30819532726468 100.32486157834161 71.85209682567007 C 0.0 **** -0.24
31067 H 97.81011815494807 99.46551833202304 71.40476590105578 H 0.0 **** 0.06
31068 H 99.02378515482715 99.98251695797408 72.60042170171258 H 0.0 **** 0.06
31069 H 97.56716165744962 100.96896189270096 72.32563203920859 H 0.0 **** 0.06
31070 H 98.83365681764076 100.88438987410045 71.07688323615905 H 0.0 **** 0.06
31071 C 0.1466447698175557 60.56898977070438 32.893602628879705 C 0.0 **** -0.24
31072 H 0.5125088256859982 60.436090702879895 33.91168073640523 H 0.0 **** 0.06
31073 H 0.9701801648392774 60.87949190676515 32.24963163573375 H 0.0 **** 0.06
31074 H -0.6302138143448701 61.332697803555945 32.88469028659563 H 0.0 **** 0.06
31075 H -0.2643286203676354 59.627662776934756 32.53000253385244 H 0.0 **** 0.06
31076 C 58.72409525176042 54.61543602497194 25.322054072191463 C 0.0 **** -0.24
31077 H 58.70651595780385 53.53560787643744 25.181744594080698 H 0.0 **** 0.06
31078 H 59.661216875735974 54.905437758224615 25.79815364554173 H 0.0 **** 0.06
31079 H 57.88726261166424 54.913034885229415 25.954830344976074 H 0.0 **** 0.06
31080 H 58.64082617082548 55.10930154340516 24.35355324582912 H 0.0 **** 0.06
31081 C 0.4041661106611514 66.71978101647588 52.81245602619356 C 0.0 **** -0.24
31082 H 1.184372522357009 66.44188251341251 52.10431334792398 H 0.0 **** 0.06
31083 H -0.5564978740725337 66.343818148478 52.46070706656303 H 0.0 **** 0.06
31084 H 0.3609077394649205 67.80601937194874 52.89798790127526 H 0.0 **** 0.06
31085 H 0.6289834098384404 66.28830356174805 53.787804728737655 H 0.0 **** 0.06
31086 C 77.12706179105302 46.55316803637393 66.76518514920211 C 0.0 **** -0.24
31087 H 77.76873631568066 46.169606854392526 65.97075741940128 H 0.0 **** 0.06
31088 H 77.7260810594048 46.739627028576535 67.65750950018459 H 0.0 **** 0.06
31089 H 76.35412222107988 45.81991162084256 66.99335857949126 H 0.0 **** 0.06
31090 H 76.6615073599306 47.48259706380114 66.43857005010432 H 0.0 **** 0.06
31091 C 63.95645749071241 16.954814504597806 30.940400790269393 C 0.0 **** -0.24
31092 H 63.6110198648193 17.180001362666218 29.93077091151838 H 0.0 **** 0.06
31093 H 64.54652244095257 16.038395255189442 30.92680575764041 H 0.0 **** 0.06
31094 H 63.09662050632306 16.82470648214175 31.59763436724026 H 0.0 **** 0.06
31095 H 64.57036177388812 17.77798708413954 31.305422879504732 H 0.0 **** 0.06
31096 C 24.63749172527723 90.55123526339105 17.139642368483976 C 0.0 **** -0.24
31097 H 24.21960130150106 90.5760832057426 18.145907675311122 H 0.0 **** 0.06
31098 H 24.659106668733436 91.56156567679983 16.7301060496156 H 0.0 **** 0.06
31099 H 24.019291191741953 89.91443721140298 16.505626500940593 H 0.0 **** 0.06
31100 H 25.650536631211367 90.15120814195109 17.176439195082523 H 0.0 **** 0.06
31101 C 49.754334370963036 92.9113219675005 76.25672771086772 C 0.0 **** -0.24
31102 H 50.2478870557286 93.76480618631138 75.79305099883143 H 0.0 **** 0.06
31103 H 50.25307302926893 92.66936333773937 77.1957120130117 H 0.0 **** 0.06
31104 H 49.80578539422895 92.05299576626814 75.58716246931456 H 0.0 **** 0.06
31105 H 48.71024843438773 93.15795235875711 76.4523466398108 H 0.0 **** 0.06
31106 C 101.4661983499187 35.986555241078406 2.5516377997638218 C 0.0 **** -0.24
31107 H 100.44343935866252 35.70272658271935 2.800800542181017 H 0.0 **** 0.06
31108 H 101.77716688294893 36.81502497235465 3.1877888564634755 H 0.0 **** 0.06
31109 H 101.51273010105129 36.29398814013226 1.5066093090141885 H 0.0 **** 0.06
31110 H 102.12792840117024 35.13569168714267 2.71106245553335 H 0.0 **** 0.06
31111 C 25.887405822827713 1.9121954121683302 38.88729738658728 C 0.0 **** -0.24
31112 H 26.20577040682047 2.526697890657175 38.045194421949134 H 0.0 **** 0.06
31113 H 26.672653867163334 1.8989236925663135 39.64375103322237 H 0.0 **** 0.06
31114 H 25.69735608087051 0.8957721368776106 38.542451724506805 H 0.0 **** 0.06
31115 H 24.975818502550386 2.3270839272749697 39.31555515048734 H 0.0 **** 0.06
31116 C 55.9300224506286 81.95337263693746 12.581464541908588 C 0.0 **** -0.24
31117 H 55.27521780950718 81.57875459827342 11.794134270981374 H 0.0 **** 0.06
31118 H 56.94823251365176 81.60674535676155 12.401816127265292 H 0.0 **** 0.06
31119 H 55.58452165707092 81.58296963840189 13.546636821198618 H 0.0 **** 0.06
31120 H 55.91133496366194 83.04261555408426 12.582005424383667 H 0.0 **** 0.06
31121 C 17.07076595922672 93.1446778028469 80.2733801952377 C 0.0 **** -0.24
31122 H 17.282702063069053 94.19976706570088 80.10008147816544 H 0.0 **** 0.06
31123 H 16.106063712237287 93.04540992973148 80.77205967262631 H 0.0 **** 0.06
31124 H 17.85175084883987 92.71589262461288 80.90243555445488 H 0.0 **** 0.06
31125 H 17.04340738309496 92.61872358457896 79.3192432240406 H 0.0 **** 0.06
31126 C 86.59790020318671 102.0707447858961 83.41100442487237 C 0.0 **** -0.24
31127 H 87.26583717606432 102.88302177743654 83.12516710208718 H 0.0 **** 0.06
31128 H 86.44623560934382 102.08825822098031 84.49086547981568 H 0.0 **** 0.06
31129 H 87.04054844804793 101.11737902191413 83.12192143861819 H 0.0 **** 0.06
31130 H 85.63944601596572 102.19429945474046 82.90773165612217 H 0.0 **** 0.06
31131 C 57.400862461994876 73.70417499899101 12.684158407459051 C 0.0 **** -0.24
31132 H 56.411596342091826 73.83580804746943 12.244857791363557 H 0.0 **** 0.06
31133 H 58.073679191841435 73.27549760506152 11.94125325950597 H 0.0 **** 0.06
31134 H 57.33098438529504 73.0346964557957 13.541677653107627 H 0.0 **** 0.06
31135 H 57.78460554333405 74.67171451373424 13.008308463578572 H 0.0 **** 0.06
31136 C 25.825659823667365 90.72024880578427 69.72836188406302 C 0.0 **** -0.24
31137 H 25.868152015846647 90.03328289499308 70.5737594077878 H 0.0 **** 0.06
31138 H 26.222262867022565 90.22699684546888 68.8399265627892 H 0.0 **** 0.06
31139 H 26.422781236838148 91.60544631288454 69.94948660246928 H 0.0 **** 0.06
31140 H 24.791808147230796 91.01485332010927 69.5497909678563 H 0.0 **** 0.06
31141 C 92.30278983092535 75.88740190985942 0.21908176694557824 C 0.0 **** -0.24
31142 H 92.60518540090216 76.81347050002111 -0.2711729142079804 H 0.0 **** 0.06
31143 H 92.78176724516854 75.04206915292616 -0.27517816775565507 H 0.0 **** 0.06
31144 H 91.21949092504836 75.7798693202651 0.15353796845946022 H 0.0 **** 0.06
31145 H 92.60305826065269 75.91475056140109 1.2658312876812516 H 0.0 **** 0.06
31146 C 38.76516187074924 61.95072787331037 7.694559193702219 C 0.0 **** -0.24
31147 H 38.957900975820394 61.03723942778231 7.131198523122464 H 0.0 **** 0.06
31148 H 39.000133885233424 62.81583608198372 7.074363535441577 H 0.0 **** 0.06
31149 H 39.38809155987218 61.96379403011724 8.588649548494118 H 0.0 **** 0.06
31150 H 37.71455298278866 61.984293042897605 7.983055385578297 H 0.0 **** 0.06
31151 C 103.2982317271786 88.13819234196504 68.18287062298069 C 0.0 **** -0.24
31152 H 103.19971311163701 87.54119271096485 69.089578534211 H 0.0 **** 0.06
31153 H 103.60210943058459 87.49493773259277 67.35646297501975 H 0.0 **** 0.06
31154 H 104.05121754409544 88.91114176519548 68.33787472807865 H 0.0 **** 0.06
31155 H 102.34146133260906 88.60358899199136 67.9495360963156 H 0.0 **** 0.06
31156 C 101.9181926167031 17.078730077046714 54.61771616481292 C 0.0 **** -0.24
31157 H 101.6656025123304 17.033577698966667 55.676670445589195 H 0.0 **** 0.06
31158 H 102.70239535076081 17.82093372174421 54.46287557629614 H 0.0 **** 0.06
31159 H 101.03423955068223 17.35818587903259 54.04410030245248 H 0.0 **** 0.06
31160 H 102.27249120699207 16.102624612751242 54.28715102021255 H 0.0 **** 0.06
31161 C 80.138631179351 40.02334121921162 51.39798859394258 C 0.0 **** -0.24
31162 H 80.38997113231521 39.21941848298101 50.706875634035136 H 0.0 **** 0.06
31163 H 79.2492980604003 39.74940576682525 51.96603498558141 H 0.0 **** 0.06
31164 H 79.94535153286017 40.937534124460086 50.837001959411474 H 0.0 **** 0.06
31165 H 80.97087780243172 40.18651737649814 52.08294320712688 H 0.0 **** 0.06
31166 C 22.158568747225587 84.00734546394725 104.18247908915956 C 0.0 **** -0.24
31167 H 21.563542047392673 83.1053402054836 104.32263047548872 H 0.0 **** 0.06
31168 H 23.113809964380863 83.74450217264987 103.72674190367016 H 0.0 **** 0.06
31169 H 22.334085310610988 84.47951808459754 105.14964076540929 H 0.0 **** 0.06
31170 H 21.622931246623367 84.69898676956038 103.53186284172699 H 0.0 **** 0.06
31171 C 97.15509711740583 30.769271028534376 69.65285354525105 C 0.0 **** -0.24
31172 H 96.47223589239303 30.016702756768183 70.04686527327212 H 0.0 **** 0.06
31173 H 98.07471958764586 30.766884414102236 70.23798389221105 H 0.0 **** 0.06
31174 H 96.68715002908203 31.751427405840474 69.71425425246412 H 0.0 **** 0.06
31175 H 97.38440345171989 30.540622762738735 68.61169874506152 H 0.0 **** 0.06
31176 C 94.50321044068073 61.45311516525858 69.02318851728143 C 0.0 **** -0.24
31177 H 95.14946541227968 61.673868106543225 68.17346952164115 H 0.0 **** 0.06
31178 H 94.43606681239214 60.37353372167526 69.1570404457243 H 0.0 **** 0.06
31179 H 93.50955766493809 61.86100364102876 68.84037490858157 H 0.0 **** 0.06
31180 H 94.92138240109448 61.90494202602865 69.9236109091213 H 0.0 **** 0.06
31181 C 9.850609839999125 48.710273629760714 16.88205175238106 C 0.0 **** -0.24
31182 H 10.462524900960453 48.74494133011855 17.783267488772537 H 0.0 **** 0.06
31183 H 10.40712878570826 48.21820502963744 16.084360793702103 H 0.0 **** 0.06
31184 H 9.596166671215178 49.7249565208621 16.57625443502414 H 0.0 **** 0.06
31185 H 8.936377636437417 48.15196172105041 17.08629437909265 H 0.0 **** 0.06
31186 C 100.015350841915 30.4242802371192 78.33987769099059 C 0.0 **** -0.24
31187 H 99.84314859604189 29.36730633586913 78.13307020663174 H 0.0 **** 0.06
31188 H 99.41557596759958 31.029623261179196 77.65984926956986 H 0.0 **** 0.06
31189 H 101.07084762366571 30.654708969982252 78.19874724293035 H 0.0 **** 0.06
31190 H 99.72984152833538 30.64315403318745 79.36974685271906 H 0.0 **** 0.06
31191 C 46.481415925915655 75.15474435365286 24.42813576561565 C 0.0 **** -0.24
31192 H 45.644744212328646 74.81328325973342 25.038349263090822 H 0.0 **** 0.06
31193 H 46.5132944289314 74.5810355683787 23.502045767766475 H 0.0 **** 0.06
31194 H 47.41227112694895 75.0116583425168 24.977466016221342 H 0.0 **** 0.06
31195 H 46.35375927867 76.21233384972986 24.197512827099928 H 0.0 **** 0.06
31196 C 12.58515850897247 35.140357804547364 60.737545944127874 C 0.0 **** -0.24
31197 H 12.530867699085817 34.81900294617054 61.77746144500449 H 0.0 **** 0.06
31198 H 13.587304322236164 34.95167420457099 60.350673816938006 H 0.0 **** 0.06
31199 H 12.364857688852055 36.2056668575664 60.67484153661063 H 0.0 **** 0.06
31200 H 11.856774228484227 34.58377146508309 60.14644547132322 H 0.0 **** 0.06
31201 C 75.43556943848074 14.0913151835408 56.118738878255584 C 0.0 **** -0.24
31202 H 76.40460503499537 14.070839880174162 55.61935273940895 H 0.0 **** 0.06
31203 H 75.55609232905422 13.782102954600944 57.157338787260954 H 0.0 **** 0.06
31204 H 74.75205256036458 13.410125892005297 55.61212805826486 H 0.0 **** 0.06
31205 H 75.03228946430232 15.103294260931548 56.085059419441876 H 0.0 **** 0.06
31206 C 14.5886009964441 65.08887729072762 52.04325013489375 C 0.0 **** -0.24
31207 H 14.43005113690623 64.07846899412044 52.42049373793853 H 0.0 **** 0.06
31208 H 15.064299458909858 65.04054369453803 51.063572863073944 H 0.0 **** 0.06
31209 H 15.229771066275546 65.63867144762014 52.732032407930376 H 0.0 **** 0.06
31210 H 13.628023692914084 65.59860013391796 51.9563555709033 H 0.0 **** 0.06
31211 C 33.66644208825378 82.32266908574297 89.38206607664716 C 0.0 **** -0.24
31212 H 34.28741520588054 82.95341834630082 90.01915046762201 H 0.0 **** 0.06
31213 H 32.68616187848011 82.78392552933323 89.25911102755384 H 0.0 **** 0.06
31214 H 33.551699739348855 81.34210156156578 89.84281023420834 H 0.0 **** 0.06
31215 H 34.14144388858877 82.2132094389014 88.40676990866933 H 0.0 **** 0.06
31216 C 65.55827574402852 39.88648787434545 6.0194259050838355 C 0.0 **** -0.24
31217 H 65.37195386518584 40.71816913245823 5.340059183383119 H 0.0 **** 0.06
31218 H 66.57826334589964 39.95087398734347 6.401279974653676 H 0.0 **** 0.06
31219 H 65.42874194901461 38.944968262262876 5.485450685159378 H 0.0 **** 0.06
31220 H 64.85633435231611 39.932272480654774 6.8512159595900926 H 0.0 **** 0.06
31221 C 45.49455218860621 15.782234749391176 49.98626519075751 C 0.0 **** -0.24
31222 H 45.26097735262303 14.719454811137275 50.045309923151706 H 0.0 **** 0.06
31223 H 45.667935922054596 16.058952727481593 48.94666626976475 H 0.0 **** 0.06
31224 H 46.39009652978089 15.991130057090949 50.572043153420026 H 0.0 **** 0.06
31225 H 44.6584680444366 16.35925903406941 50.38224374801905 H 0.0 **** 0.06
31226 C 23.73543341864132 28.03028661379175 101.8075565019554 C 0.0 **** -0.24
31227 H 23.45674894766273 27.513196556229744 102.7256009092538 H 0.0 **** 0.06
31228 H 24.164382371863212 29.00147585612904 102.05299066426878 H 0.0 **** 0.06
31229 H 22.84981795021082 28.170022401149357 101.18666769046695 H 0.0 **** 0.06
31230 H 24.469046760642527 27.435091364172138 101.26460554017483 H 0.0 **** 0.06
31231 C 5.340858015678208 45.02431936515772 32.91379481543058 C 0.0 **** -0.24
31232 H 4.383863866027497 45.54480321114545 32.9458955262584 H 0.0 **** 0.06
31233 H 5.180830685975295 43.95975565151304 33.083971340417946 H 0.0 **** 0.06
31234 H 5.997038513497273 45.42244126890406 33.688470787494225 H 0.0 **** 0.06
31235 H 5.801586862884761 45.17193921142115 31.936366516946293 H 0.0 **** 0.06
31236 C 78.95775821216779 16.369828250562378 52.23604508232765 C 0.0 **** -0.24
31237 H 79.62342919984678 15.569346104533992 51.91309124461969 H 0.0 **** 0.06
31238 H 79.27001268930962 16.729301704676573 53.21714484219643 H 0.0 **** 0.06
31239 H 77.9372007270064 15.990867691785411 52.29537507233172 H 0.0 **** 0.06
31240 H 78.99986209743184 17.188830062339562 51.51768303959412 H 0.0 **** 0.06
31241 C 102.44154432780918 63.23569681887615 10.765886087754083 C 0.0 **** -0.24
31242 H 101.87524946178401 64.08876187316403 10.39167911199361 H 0.0 **** 0.06
31243 H 103.50137322423963 63.48990570936401 10.797211661149603 H 0.0 **** 0.06
31244 H 102.29125877439803 62.38208725937574 10.10485531390816 H 0.0 **** 0.06
31245 H 102.09880334644753 62.98420912761739 11.76972984188869 H 0.0 **** 0.06
31246 C 63.54997649738303 22.47610645314437 98.55632811474749 C 0.0 **** -0.24
31247 H 63.84475881230719 22.74651495002507 97.54303877913964 H 0.0 **** 0.06
31248 H 64.40429824346714 22.049609184222746 99.08176805378503 H 0.0 **** 0.06
31249 H 62.743769896580915 21.742118700554112 98.5164068877902 H 0.0 **** 0.06
31250 H 63.20475187263045 23.3654609311904 99.08435019441629 H 0.0 **** 0.06
31251 C 6.632136319962882 88.31908068932651 62.72251201798919 C 0.0 **** -0.24
31252 H 6.71399137813782 88.85913875984319 63.66546096155268 H 0.0 **** 0.06
31253 H 5.59779334536384 88.34454374940402 62.377475761891546 H 0.0 **** 0.06
31254 H 6.940516192827715 87.2840644501825 62.86974293464658 H 0.0 **** 0.06
31255 H 7.276016608944445 88.78731336734792 61.97796380374646 H 0.0 **** 0.06
31256 C 8.539911984813173 80.76041385249543 67.77185999958895 C 0.0 **** -0.24
31257 H 8.6688779788184 80.47951676564806 68.81767277420352 H 0.0 **** 0.06
31258 H 8.977531222925592 81.74432687957736 67.60427943589929 H 0.0 **** 0.06
31259 H 7.4774653724741995 80.78786739316115 67.53248341651826 H 0.0 **** 0.06
31260 H 9.037099045604464 80.02766692355222 67.13617558353062 H 0.0 **** 0.06
31261 C 55.38539930358866 64.78260464792169 18.320627498515364 C 0.0 **** -0.24
31262 H 54.548007512148004 65.34719796735638 18.731043255651855 H 0.0 **** 0.06
31263 H 56.161511231531435 65.47297486225644 17.990282301640974 H 0.0 **** 0.06
31264 H 55.04248580576067 64.18743502322502 17.47404839588887 H 0.0 **** 0.06
31265 H 55.789598257751145 64.12284794670443 19.088867722848164 H 0.0 **** 0.06
31266 C 19.61380452325642 45.41364591962255 93.97125120374447 C 0.0 **** -0.24
31267 H 19.730010871172283 44.96430348876237 92.98494284574477 H 0.0 **** 0.06
31268 H 19.52715546340943 44.62756559497049 94.72058511928428 H 0.0 **** 0.06
31269 H 18.715674045751086 46.03109393144405 93.98582188976924 H 0.0 **** 0.06
31270 H 20.483420335330095 46.03301471677776 94.1926702078415 H 0.0 **** 0.06
31271 C 32.27965443676919 74.5067742120907 87.05830909048115 C 0.0 **** -0.24
31272 H 31.73485120054488 75.15252159634178 87.74688403129835 H 0.0 **** 0.06
31273 H 31.722735791271617 73.58134044691161 86.90915913435691 H 0.0 **** 0.06
31274 H 33.26075652088238 74.27709649570573 87.4748275013174 H 0.0 **** 0.06
31275 H 32.40125631686871 75.01632165195451 86.10232158670044 H 0.0 **** 0.06
31276 C 95.41081876175807 52.24743873011158 16.227560091523713 C 0.0 **** -0.24
31277 H 95.2051663357714 51.58315377065942 15.38813333217783 H 0.0 **** 0.06
31278 H 96.25976859691025 52.88665906416917 15.98345911634172 H 0.0 **** 0.06
31279 H 95.64410503221285 51.65424502412135 17.111514519564082 H 0.0 **** 0.06
31280 H 94.53491229830777 52.86643281176822 16.424897257120108 H 0.0 **** 0.06
31281 C 104.97394710481211 17.15591969788869 34.14815993822293 C 0.0 **** -0.24
31282 H 105.31577857961841 18.07017692220959 34.63408041684863 H 0.0 **** 0.06
31283 H 105.19565061264483 16.301083829735735 34.787164559476594 H 0.0 **** 0.06
31284 H 105.48652763310193 17.039191487268827 33.19266661499418 H 0.0 **** 0.06
31285 H 103.89924135315363 17.214951434086963 33.97892204813843 H 0.0 **** 0.06
31286 C 66.89872873604943 100.88927198477793 47.11113665925541 C 0.0 **** -0.24
31287 H 66.10810956807002 101.23708821060454 46.44520800195147 H 0.0 **** 0.06
31288 H 67.55972697438972 100.21287220910321 46.56837665514158 H 0.0 **** 0.06
31289 H 66.45549449630165 100.3638386830126 47.957531365675436 H 0.0 **** 0.06
31290 H 67.47038976969279 101.7436447052702 47.472227478636796 H 0.0 **** 0.06
31291 C 65.28581319532822 97.42866841906896 38.42654011818572 C 0.0 **** -0.24
31292 H 65.36970821256497 98.36776420196333 38.974452056352625 H 0.0 **** 0.06
31293 H 64.55734292054777 96.78468568692118 38.91961620292231 H 0.0 **** 0.06
31294 H 66.25590638682979 96.93266006368428 38.40630175378833 H 0.0 **** 0.06
31295 H 64.95970125842425 97.6317188131206 37.4057358670102 H 0.0 **** 0.06
31296 C 42.4690790631667 63.54853315350033 56.90801595934937 C 0.0 **** -0.24
31297 H 41.60638578922013 62.898523000948046 57.05341133160675 H 0.0 **** 0.06
31298 H 43.2561137996218 63.27047821864801 57.60946055052278 H 0.0 **** 0.06
31299 H 42.17670429747045 64.58347164215974 57.080515081180124 H 0.0 **** 0.06
31300 H 42.837622995418485 63.4403760380884 55.88763213772597 H 0.0 **** 0.06
31301 C 68.94680201663553 15.725464090061053 66.60387000332395 C 0.0 **** -0.24
31302 H 69.88090048546367 15.915289938915862 66.07455163522911 H 0.0 **** 0.06
31303 H 69.01467184768153 14.773182966733046 67.1298006574774 H 0.0 **** 0.06
31304 H 68.12597733243081 15.688932888834003 65.88851138164387 H 0.0 **** 0.06
31305 H 68.76794243588513 16.526351212326716 67.32153412473298 H 0.0 **** 0.06
31306 C 12.209389363325108 70.69750095853846 98.61093573214265 C 0.0 **** -0.24
31307 H 11.946371936523775 69.90681164367288 97.90817549270017 H 0.0 **** 0.06
31308 H 13.27713122093062 70.9048998867072 98.54196685900719 H 0.0 **** 0.06
31309 H 11.964940233974588 70.37929727052824 99.62396668116625 H 0.0 **** 0.06
31310 H 11.647260749994972 71.60015136026209 98.36915601165325 H 0.0 **** 0.06
31311 C 95.40934578100234 73.07064534490738 51.64635719950087 C 0.0 **** -0.24
31312 H 94.66218203705495 73.40123687139521 52.368049171578946 H 0.0 **** 0.06
31313 H 96.01998922997976 73.91961749790082 51.34133014584921 H 0.0 **** 0.06
31314 H 94.90952317531853 72.64874895309165 50.77389886459832 H 0.0 **** 0.06
31315 H 96.04363796994394 72.3111836300358 52.1037553193637 H 0.0 **** 0.06
31316 C 42.7013220347427 29.742790904990514 18.620391315313498 C 0.0 **** -0.24
31317 H 43.360208565120104 29.115631681432447 18.018840310082666 H 0.0 **** 0.06
31318 H 43.29720974372495 30.313316866864866 19.334563415352946 H 0.0 **** 0.06
31319 H 41.99346811491205 29.113305594147924 19.159318734107003 H 0.0 **** 0.06
31320 H 42.15810116522266 30.42814444446701 17.971017581924343 H 0.0 **** 0.06
31321 C 66.44444350332074 73.98167219712772 46.54580338792744 C 0.0 **** -0.24
31322 H 66.1223017852398 74.28327214150244 45.549649360519574 H 0.0 **** 0.06
31323 H 67.38516026230913 74.47661327216551 46.78839367907869 H 0.0 **** 0.06
31324 H 66.58410576970518 72.90081291331327 46.57112889047632 H 0.0 **** 0.06
31325 H 65.68576832047165 74.26688359504513 47.27504694228846 H 0.0 **** 0.06
31326 C 15.733468046698022 55.23600865117081 104.55930232611234 C 0.0 **** -0.24
31327 H 14.84974215049408 55.40310597643236 105.1741491993522 H 0.0 **** 0.06
31328 H 15.997829796463293 56.16027617166614 104.04459933608032 H 0.0 **** 0.06
31329 H 15.524389811975993 54.45808700035431 103.82565059741827 H 0.0 **** 0.06
31330 H 16.56339110053443 54.92324314270515 105.19434267925257 H 0.0 **** 0.06
31331 C 17.141636764425503 17.78343199174778 5.762772320859597 C 0.0 **** -0.24
31332 H 17.971371872557842 17.111305456250353 5.983413011697536 H 0.0 **** 0.06
31333 H 16.459124614294183 17.299520650384565 5.063578698898965 H 0.0 **** 0.06
31334 H 17.52582436769377 18.70218634991092 5.319698942634119 H 0.0 **** 0.06
31335 H 16.610198398933427 18.018423116465296 6.685261435547162 H 0.0 **** 0.06
31336 C 32.00010882574341 23.123114726376603 31.121593277068946 C 0.0 **** -0.24
31337 H 31.167042159858852 23.116772419904816 30.418344078345697 H 0.0 **** 0.06
31338 H 32.14727494941525 22.118836802797134 31.518749021302988 H 0.0 **** 0.06
31339 H 31.778502410828764 23.809062903436896 31.94013189760591 H 0.0 **** 0.06
31340 H 32.904858418776286 23.448962754405393 30.60926827921042 H 0.0 **** 0.06
31341 C 13.084201024620654 24.4041363517509 7.57060059626658 C 0.0 **** -0.24
31342 H 12.241371301970304 24.69581944841044 8.196833551539953 H 0.0 **** 0.06
31343 H 13.674392966942364 23.64591395288711 8.085945145884889 H 0.0 **** 0.06
31344 H 13.706932226519285 25.276520325161584 7.3701615711093 H 0.0 **** 0.06
31345 H 12.71324330285384 23.998771406802316 6.628450711576782 H 0.0 **** 0.06
31346 C 53.4917841042851 91.10159466349634 30.835582914786457 C 0.0 **** -0.24
31347 H 53.67793430684901 91.71384586095137 31.718696916501955 H 0.0 **** 0.06
31348 H 54.38208063650842 91.09014424596974 30.207468560267984 H 0.0 **** 0.06
31349 H 52.656203258930134 91.51918997006477 30.27480268165307 H 0.0 **** 0.06
31350 H 53.250396392325996 90.0844434420708 31.143849135568843 H 0.0 **** 0.06
31351 C 100.45286223884563 5.240702636528898 47.60630272760466 C 0.0 **** -0.24
31352 H 100.40447767335047 4.988712319557784 46.54690123410478 H 0.0 **** 0.06
31353 H 100.27784578437428 4.34280329496529 48.200883945992075 H 0.0 **** 0.06
31354 H 99.69069309946696 5.9846228769021526 47.83810131211038 H 0.0 **** 0.06
31355 H 101.43760346773155 5.644583252989003 47.838349709005854 H 0.0 **** 0.06
31356 C 78.32985862270732 37.42776045622797 71.33750421720652 C 0.0 **** -0.24
31357 H 78.68739184425164 38.19862321781156 70.65522181161163 H 0.0 **** 0.06
31358 H 79.14299801346243 36.73733217729309 71.56328478583447 H 0.0 **** 0.06
31359 H 77.50969801587797 36.882833960922426 70.87036035444237 H 0.0 **** 0.06
31360 H 77.98060252959607 37.892616826740145 72.25907863622524 H 0.0 **** 0.06
31361 C 16.198306211581894 28.818323397475595 87.43718598640082 C 0.0 **** -0.24
31362 H 17.164691106663895 28.758801574360078 87.93828688917652 H 0.0 **** 0.06
31363 H 16.331689671399886 28.636788932165047 86.36985760102137 H 0.0 **** 0.06
31364 H 15.771170115054815 29.810127200684235 87.5871349823284 H 0.0 **** 0.06
31365 H 15.527263000383982 28.066854263535262 87.85206646552746 H 0.0 **** 0.06
31366 C 10.271946957026586 46.79740268424012 73.0248916438774 C 0.0 **** -0.24
31367 H 9.824968699570633 46.199155607957174 72.23040714633952 H 0.0 **** 0.06
31368 H 10.991977785388883 47.49313072465658 72.5931233677844 H 0.0 **** 0.06
31369 H 10.779449890154865 46.14086032342875 73.73204200601188 H 0.0 **** 0.06
31370 H 9.49184389980357 47.3554055254101 73.54207703102396 H 0.0 **** 0.06
31371 C 100.22372022353083 98.62674097077164 47.216050456891026 C 0.0 **** -0.24
31372 H 100.30827164461869 99.50183434536319 46.57035902060613 H 0.0 **** 0.06
31373 H 101.20059205392317 98.1522915793195 47.31417257944105 H 0.0 **** 0.06
31374 H 99.51865750304435 97.9193277369861 46.778227620237374 H 0.0 **** 0.06
31375 H 99.86742001258746 98.93475680534127 48.198369677644564 H 0.0 **** 0.06
31376 C 18.44984418710942 64.0277219723534 39.99804097654123 C 0.0 **** -0.24
31377 H 18.70381603282067 63.116855884907665 40.54044764366989 H 0.0 **** 0.06
31378 H 17.69288685151821 63.80389587493515 39.245826768617405 H 0.0 **** 0.06
31379 H 19.341983358652328 64.42026806420992 39.51080598250644 H 0.0 **** 0.06
31380 H 18.06072770519006 64.76909110867709 40.69571200205445 H 0.0 **** 0.06
31381 C 35.61410447237341 18.23960586835905 12.333321902585155 C 0.0 **** -0.24
31382 H 35.018473506324966 18.977792105211137 12.869732667191897 H 0.0 **** 0.06
31383 H 35.69647877992725 18.530080709498762 11.286038492520376 H 0.0 **** 0.06
31384 H 35.13284787299523 17.264090472954535 12.403161051779037 H 0.0 **** 0.06
31385 H 36.60935484635701 18.185393777483554 12.774920664537504 H 0.0 **** 0.06
31386 C 74.93048869927365 79.38269748300979 89.4685238415083 C 0.0 **** -0.24
31387 H 75.26507748176523 79.95879817284299 90.33142711811817 H 0.0 **** 0.06
31388 H 75.73158598007716 78.71882553609476 89.14284622084179 H 0.0 **** 0.06
31389 H 74.67065836441742 80.06322472894396 88.65765420120576 H 0.0 **** 0.06
31390 H 74.05632829859505 78.79272753851058 89.74277142107499 H 0.0 **** 0.06
31391 C 52.30640423798074 79.12252654521683 2.866847669652344 C 0.0 **** -0.24
31392 H 53.31063204252347 78.71081162525257 2.968410741285453 H 0.0 **** 0.06
31393 H 51.59902213945766 78.49198044560586 3.4061805214224705 H 0.0 **** 0.06
31394 H 52.03261486842751 79.15569205404114 1.8120490333635075 H 0.0 **** 0.06
31395 H 52.28342205659261 80.13065605610723 3.2805026097744587 H 0.0 **** 0.06
31396 C 39.21413984388292 23.28083889755149 7.124938168440721 C 0.0 **** -0.24
31397 H 39.5366604243124 23.641872181412595 8.102244269098406 H 0.0 **** 0.06
31398 H 39.814138321290784 22.415975691172633 6.842072186223817 H 0.0 **** 0.06
31399 H 39.34397982437886 24.07105734419423 6.385288179351221 H 0.0 **** 0.06
31400 H 38.16381117186393 22.996370190232682 7.171239977957953 H 0.0 **** 0.06
31401 C 43.52846932261583 94.19587264168445 37.03026023609573 C 0.0 **** -0.24
31402 H 42.571898791429206 94.69299600575428 36.87056719715554 H 0.0 **** 0.06
31403 H 44.33525329285783 94.83903469587213 36.679145023407386 H 0.0 **** 0.06
31404 H 43.54545543509681 93.25526479132088 36.478017410309235 H 0.0 **** 0.06
31405 H 43.659756711820314 93.9942702949267 38.093232864214 H 0.0 **** 0.06
31406 C 75.80801158073106 57.5349681663144 101.39267457640709 C 0.0 **** -0.24
31407 H 75.56648790860484 58.318650531648075 100.6743090750678 H 0.0 **** 0.06
31408 H 76.77573757025951 57.7461062303999 101.84850334787646 H 0.0 **** 0.06
31409 H 75.84899337087347 56.573523870455006 100.88066669472687 H 0.0 **** 0.06
31410 H 75.0415175602395 57.501891052615065 102.16602149889981 H 0.0 **** 0.06
31411 C 59.03048150127901 37.64913542107419 60.730707659023594 C 0.0 **** -0.24
31412 H 59.518739283462025 38.619735450617384 60.826398294849966 H 0.0 **** 0.06
31413 H 58.956530813868056 37.383049651959226 59.67583590897924 H 0.0 **** 0.06
31414 H 58.03227211236103 37.70053227270337 61.16428699264081 H 0.0 **** 0.06
31415 H 59.61705321288301 36.89490813953316 61.25528991436505 H 0.0 **** 0.06
31416 C 51.54277997861647 82.73561206524028 80.18822061671273 C 0.0 **** -0.24
31417 H 50.837763612763304 83.54734172453712 80.36730603706621 H 0.0 **** 0.06
31418 H 51.233417696704024 81.85574227571902 80.75228518449296 H 0.0 **** 0.06
31419 H 52.53834015290887 83.04189385106005 80.51001112699063 H 0.0 **** 0.06
31420 H 51.56083480669049 82.4981577716261 79.12467457782174 H 0.0 **** 0.06
31421 C 29.265511330966717 73.52424737877719 15.921776062262524 C 0.0 **** -0.24
31422 H 30.27545284247401 73.73823175537169 15.570544536474983 H 0.0 **** 0.06
31423 H 28.561842602928266 74.20571442298458 15.443741864404387 H 0.0 **** 0.06
31424 H 29.222454107876047 73.65592556099094 17.00339877148332 H 0.0 **** 0.06
31425 H 29.004284385658252 72.49640708217667 15.670154301124683 H 0.0 **** 0.06
31426 C 1.7327043516003329 94.25923340242923 69.31177600292986 C 0.0 **** -0.24
31427 H 1.2169369739818308 94.26470799430251 68.3509717573073 H 0.0 **** 0.06
31428 H 1.5264273795159795 93.32121560531147 69.82850338917103 H 0.0 **** 0.06
31429 H 1.3801915746871174 95.09362100702009 69.91759424810884 H 0.0 **** 0.06
31430 H 2.8062853971237587 94.35620605096472 69.14812459978266 H 0.0 **** 0.06
31431 C 18.28066079953453 66.32648260007105 21.418668544799054 C 0.0 **** -0.24
31432 H 18.728056857263624 65.40567548738667 21.044413636168144 H 0.0 **** 0.06
31433 H 17.356367390820793 66.09237401008636 21.946626458861925 H 0.0 **** 0.06
31434 H 18.063002763736506 66.99046606424074 20.580753424064774 H 0.0 **** 0.06
31435 H 18.97526095718115 66.81783219142002 22.09959062686506 H 0.0 **** 0.06
31436 C 41.86317761823172 49.71172174293736 62.462563396023285 C 0.0 **** -0.24
31437 H 42.39251372768837 50.655322493233456 62.321677904913 H 0.0 **** 0.06
31438 H 41.71509097440516 49.53453385136331 63.52776877480349 H 0.0 **** 0.06
31439 H 42.45119323859423 48.89909335433319 62.0356588961086 H 0.0 **** 0.06
31440 H 40.895667871195414 49.7611782248604 61.96282080180367 H 0.0 **** 0.06
31441 C 27.08913740650229 3.0634165968773317 15.0646919149562 C 0.0 **** -0.24
31442 H 26.54940761231225 2.421650012211444 15.761593013728373 H 0.0 **** 0.06
31443 H 26.770494145768083 2.8401550102546196 14.045335965144176 H 0.0 **** 0.06
31444 H 28.15984262783917 2.883465576901628 15.15944238385353 H 0.0 **** 0.06
31445 H 26.87357768300197 4.107664702227552 15.292175174600459 H 0.0 **** 0.06
31446 C 100.79627037860084 7.729809571877274 0.5656002403748062 C 0.0 **** -0.24
31447 H 101.44771829085965 8.499178362037604 0.15199661808475184 H 0.0 **** 0.06
31448 H 99.76368884417914 7.9373287546868525 0.2832282991718813 H 0.0 **** 0.06
31449 H 100.88212053329677 7.725261732693205 1.6518243135755881 H 0.0 **** 0.06
31450 H 101.09139712242768 6.75553497241126 0.17424109550073297 H 0.0 **** 0.06
31451 C 96.25664991643539 47.00892887352042 16.940713551568162 C 0.0 **** -0.24
31452 H 96.46657670488041 47.287209658484805 17.973881153781523 H 0.0 **** 0.06
31453 H 95.44441418130405 46.281910677827334 16.918864266947402 H 0.0 **** 0.06
31454 H 97.14990282143471 46.57224196065036 16.494050932623406 H 0.0 **** 0.06
31455 H 95.96555429276319 47.89602815877624 16.378735904739457 H 0.0 **** 0.06
31456 C 102.67455352061027 38.2022785671422 68.84192292020954 C 0.0 **** -0.24
31457 H 102.88132969138606 37.20627557183576 69.23532528697267 H 0.0 **** 0.06
31458 H 103.45328162522577 38.89069322868022 69.16871406927291 H 0.0 **** 0.06
31459 H 101.70791684431224 38.54449241710819 69.21065031878402 H 0.0 **** 0.06
31460 H 102.6548748518769 38.16491894832677 67.75207073605964 H 0.0 **** 0.06
31461 C 75.90470200770935 100.36994498069015 96.91266892086398 C 0.0 **** -0.24
31462 H 75.6937808451915 99.53604646289517 97.58319281735817 H 0.0 **** 0.06
31463 H 74.97888734064588 100.69907506360768 96.44085720381614 H 0.0 **** 0.06
31464 H 76.61000697650101 100.04997939320435 96.1460395411631 H 0.0 **** 0.06
31465 H 76.33515396192786 101.19318158762209 97.48225937102191 H 0.0 **** 0.06
31466 C 14.846846781742883 44.699632552656354 100.97328401774402 C 0.0 **** -0.24
31467 H 14.794394788900519 45.000931115663114 99.92668920214732 H 0.0 **** 0.06
31468 H 15.410923723206608 45.44271373274847 101.53712644157964 H 0.0 **** 0.06
31469 H 15.342762121193289 43.73219593977568 101.04820434009306 H 0.0 **** 0.06
31470 H 13.837948937398323 44.62387580701631 101.37979330114175 H 0.0 **** 0.06
31471 C 14.487706143538276 42.78726323029616 96.14061241071698 C 0.0 **** -0.24
31472 H 14.953729510406419 41.80260509858584 96.09799418847084 H 0.0 **** 0.06
31473 H 13.457832408823322 42.686567796475714 96.48460990196511 H 0.0 **** 0.06
31474 H 14.49792755531783 43.23841127213694 95.14808195555085 H 0.0 **** 0.06
31475 H 15.04269157620331 43.42075550617497 96.8333919331611 H 0.0 **** 0.06
31476 C 12.617814306031335 68.78796996866089 105.08887777968496 C 0.0 **** -0.24
31477 H 11.552309430348629 68.59273464161163 105.21079677938928 H 0.0 **** 0.06
31478 H 12.884315821395603 69.69693769611291 105.62767857280323 H 0.0 **** 0.06
31479 H 12.845332011233438 68.91139180793118 104.03017742606153 H 0.0 **** 0.06
31480 H 13.18697847984376 67.9480314329308 105.48778519791452 H 0.0 **** 0.06
31481 C 42.52770641195374 68.37238972226993 11.858564356705509 C 0.0 **** -0.24
31482 H 42.44866284048273 68.28278923439419 10.774690001566738 H 0.0 **** 0.06
31483 H 41.5297447626344 68.34689986020655 12.298125044696231 H 0.0 **** 0.06
31484 H 43.012177758549 69.31514572000012 12.110584792971178 H 0.0 **** 0.06
31485 H 43.11825626233601 67.54396160885707 12.250162946726803 H 0.0 **** 0.06
31486 C 5.39666215224517 77.79405426880514 17.27468267482959 C 0.0 **** -0.24
31487 H 5.2281142363846556 78.6294454293246 16.59447979637025 H 0.0 **** 0.06
31488 H 6.435136142586188 77.46929593320873 17.200059857667497 H 0.0 **** 0.06
31489 H 4.73763680583275 76.96909054210492 17.005695482425722 H 0.0 **** 0.06
31490 H 5.186129672979078 78.10954331932265 18.29636874349177 H 0.0 **** 0.06
31491 C 30.06498295427331 71.74922194648283 46.68038694846808 C 0.0 **** -0.24
31492 H 30.43800129491391 71.06903709262437 47.44546311779857 H 0.0 **** 0.06
31493 H 28.98101677050917 71.8314430069509 46.764540083859856 H 0.0 **** 0.06
31494 H 30.325057981264557 71.36393351982406 45.69412656306881 H 0.0 **** 0.06
31495 H 30.515855770405757 72.73247416653196 46.817418029145244 H 0.0 **** 0.06
31496 C 83.59703712625767 7.357489349072637 41.61782006271784 C 0.0 **** -0.24
31497 H 83.53657110107322 8.40548963700735 41.91162777517463 H 0.0 **** 0.06
31498 H 83.4935150988946 7.278119402896408 40.535404554006 H 0.0 **** 0.06
31499 H 82.79681774712712 6.798660425346128 42.10167936535812 H 0.0 **** 0.06
31500 H 84.56088366307378 6.949883668767441 41.92234782805194 H 0.0 **** 0.06
31501 C 49.8683571457118 48.30313502429584 98.21975755724125 C 0.0 **** -0.24
31502 H 50.16591715086861 47.41658363310603 98.78024342417908 H 0.0 **** 0.06
31503 H 50.3599994345671 49.180553638720994 98.64068055736394 H 0.0 **** 0.06
31504 H 48.78750022084614 48.42629300182551 98.28331932412803 H 0.0 **** 0.06
31505 H 50.16118417943039 48.187663970740516 97.17637917249496 H 0.0 **** 0.06
31506 C 27.063786064975517 30.193596417052376 82.6059104732982 C 0.0 **** -0.24
31507 H 26.539903853685132 29.71706445359768 81.77785106539031 H 0.0 **** 0.06
31508 H 27.899744345105404 29.565823305529456 82.91580790982215 H 0.0 **** 0.06
31509 H 26.377520723088367 30.324418239884928 83.44253358696946 H 0.0 **** 0.06
31510 H 27.437954110422368 31.166385807581555 82.28621717942022 H 0.0 **** 0.06
31511 C 84.71525829200296 68.21050749090028 14.349942467634666 C 0.0 **** -0.24
31512 H 85.09014855602851 67.20214459038118 14.174938891328132 H 0.0 **** 0.06
31513 H 83.67034795113072 68.16089406409449 14.657958123031712 H 0.0 **** 0.06
31514 H 84.79549288166021 68.792024437713 13.431059886863881 H 0.0 **** 0.06
31515 H 85.30409545717679 68.68620340643037 15.134226151502997 H 0.0 **** 0.06
31516 C 52.66827001860099 3.5641645134096507 77.17705760150703 C 0.0 **** -0.24
31517 H 51.92419344673618 2.768651021870525 77.21664352366805 H 0.0 **** 0.06
31518 H 52.55135576646745 4.213870817200544 78.04450644192349 H 0.0 **** 0.06
31519 H 52.53122455520361 4.145599197239179 76.26604064410184 H 0.0 **** 0.06
31520 H 53.66661645878253 3.126741938870751 77.18267740888638 H 0.0 **** 0.06
31521 C 83.78373297089061 54.92410795488908 67.5181614860196 C 0.0 **** -0.24
31522 H 83.76541224372801 55.49798190516527 68.44477508163592 H 0.0 **** 0.06
31523 H 82.84877081171791 54.372878693034295 67.41420090742146 H 0.0 **** 0.06
31524 H 84.61846838221965 54.22401785719497 67.5404622352094 H 0.0 **** 0.06
31525 H 83.90052992767596 55.603951022473154 66.67364054196038 H 0.0 **** 0.06
31526 C 104.22472841277471 77.06142895290182 20.95586233110456 C 0.0 **** -0.24
31527 H 103.76238810414148 77.88424949291267 20.410746290334075 H 0.0 **** 0.06
31528 H 103.51456820895768 76.6616344801603 21.679887596083955 H 0.0 **** 0.06
31529 H 105.10987061802042 77.42455991324803 21.478448118118198 H 0.0 **** 0.06
31530 H 104.51178239882567 76.27729244357582 20.255275683640164 H 0.0 **** 0.06
31531 C 100.42058904015198 60.32461607245642 87.74831709761901 C 0.0 **** -0.24
31532 H 100.55917986312602 60.80636552874074 86.78000062539536 H 0.0 **** 0.06
31533 H 99.457162804826 59.814797171435146 87.76487902025355 H 0.0 **** 0.06
31534 H 100.44788267316869 61.07768091323953 88.53523072920444 H 0.0 **** 0.06
31535 H 101.21858287613793 59.59958749401068 87.90987243344574 H 0.0 **** 0.06
31536 C 4.818099852240721 7.497461269690859 91.62643305713925 C 0.0 **** -0.24
31537 H 5.361669882494596 8.10465264100361 90.90333215238857 H 0.0 **** 0.06
31538 H 3.7978101827105206 7.340326884495312 91.27410003054679 H 0.0 **** 0.06
31539 H 4.795385512223277 8.01104442133554 92.58743258815555 H 0.0 **** 0.06
31540 H 5.315490324752943 6.535273616102586 91.73955797736153 H 0.0 **** 0.06
31541 C 4.2345043136308504 90.27460497080034 0.5921828934262408 C 0.0 **** -0.24
31542 H 4.301746771083856 90.05144186970807 1.656782992435069 H 0.0 **** 0.06
31543 H 4.470383690465866 91.32668117822266 0.42655570651442076 H 0.0 **** 0.06
31544 H 3.2233830225680435 90.06930745309563 0.24066423082507526 H 0.0 **** 0.06
31545 H 4.943700546658192 89.6525578266315 0.04578123066283979 H 0.0 **** 0.06
31546 C 43.50556513888054 67.7424683701629 16.280238095031677 C 0.0 **** -0.24
31547 H 43.44705848966584 68.61304888848852 16.933030720090926 H 0.0 **** 0.06
31548 H 43.1250199222604 66.86690105506514 16.807831688348926 H 0.0 **** 0.06
31549 H 44.54324102496375 67.57216820173505 15.993547828369685 H 0.0 **** 0.06
31550 H 42.905537044186325 67.91792358132813 15.38656112598693 H 0.0 **** 0.06
31551 C 19.637245123529567 0.3825728593686546 39.83372213044878 C 0.0 **** -0.24
31552 H 20.1381954559168 -0.5491199629608077 40.0994156104762 H 0.0 **** 0.06
31553 H 20.35144433356936 1.0566125060467897 39.36103963848767 H 0.0 **** 0.06
31554 H 19.23825486845425 0.8489407325490799 40.73439048282204 H 0.0 **** 0.06
31555 H 18.8218105668588 0.17219168369334525 39.141685316208815 H 0.0 **** 0.06
31556 C 60.828826122305145 59.863198232973275 87.56558355137078 C 0.0 **** -0.24
31557 H 61.63891757732773 59.42781045153282 86.97991038760938 H 0.0 **** 0.06
31558 H 61.23296338369107 60.29647455789572 88.48010931685026 H 0.0 **** 0.06
31559 H 60.10648419220854 59.08605556325881 87.81857206736258 H 0.0 **** 0.06
31560 H 60.33652891596785 60.6406629081377 86.9806392064854 H 0.0 **** 0.06
31561 C 9.520957629222607 98.49939407680428 71.50223392137498 C 0.0 **** -0.24
31562 H 9.861804204666768 98.29781663914314 70.48637424251592 H 0.0 **** 0.06
31563 H 8.594566337857373 97.95529270524631 71.68927304020092 H 0.0 **** 0.06
31564 H 9.345444371620331 99.5688951533084 71.62003150184718 H 0.0 **** 0.06
31565 H 10.282586707038789 98.17534214625809 72.21135393512814 H 0.0 **** 0.06
31566 C 17.412014807354694 26.432751018704323 84.15094423215339 C 0.0 **** -0.24
31567 H 16.614359275626782 26.46684451429627 83.40903656834729 H 0.0 **** 0.06
31568 H 18.20721493843172 27.12037228049708 83.86051433663644 H 0.0 **** 0.06
31569 H 17.81108146417415 25.419738557379546 84.20907595566845 H 0.0 **** 0.06
31570 H 17.01726592012352 26.72368582105264 85.1239668035716 H 0.0 **** 0.06
31571 C 69.61181752621633 37.24009430409824 101.6434642328138 C 0.0 **** -0.24
31572 H 69.84672975606279 36.23343164114706 101.98943856918604 H 0.0 **** 0.06
31573 H 70.27682777712678 37.50635348234874 100.82162839524963 H 0.0 **** 0.06
31574 H 69.74390891381267 37.945691639913456 102.46292497852703 H 0.0 **** 0.06
31575 H 68.57760943844781 37.272527734493245 101.29911925734233 H 0.0 **** 0.06
31576 C 0.9991498397495775 34.214263934548285 33.98316082505522 C 0.0 **** -0.24
31577 H 0.22061189306033668 34.977630962107725 33.98965624312382 H 0.0 **** 0.06
31578 H 1.226643848040851 33.91872738724081 35.00731917596991 H 0.0 **** 0.06
31579 H 1.8970682865649309 34.615643043106445 33.512950236228136 H 0.0 **** 0.06
31580 H 0.6523995588376863 33.34646018286884 33.42280864811215 H 0.0 **** 0.06
31581 C 8.101455634156324 86.91625605733529 4.597844879590326 C 0.0 **** -0.24
31582 H 7.698128900676977 87.43994817672431 5.465225921257229 H 0.0 **** 0.06
31583 H 7.284479564695204 86.63651562460815 3.9315752874892667 H 0.0 **** 0.06
31584 H 8.625000384308606 86.01882567078394 4.926758672234172 H 0.0 **** 0.06
31585 H 8.79504703456719 87.56850607669753 4.069389128239351 H 0.0 **** 0.06
31586 C 69.2288722807557 57.47123810354053 99.88608893217264 C 0.0 **** -0.24
31587 H 69.10134720512957 56.65189385827146 99.17817149404021 H 0.0 **** 0.06
31588 H 69.97909451229685 57.19732875966803 100.62787055892073 H 0.0 **** 0.06
31589 H 68.27979081949877 57.670575750199454 100.384711671775 H 0.0 **** 0.06
31590 H 69.55338802751578 58.36487141794676 99.35240666281578 H 0.0 **** 0.06
31591 C 47.73909752359242 53.34782334157774 58.12680386643064 C 0.0 **** -0.24
31592 H 47.91030446298603 53.81963860618504 57.15984151265478 H 0.0 **** 0.06
31593 H 48.44758276590696 52.53121906057612 58.26336808797269 H 0.0 **** 0.06
31594 H 46.72219048680532 52.956946326374975 58.165222048040675 H 0.0 **** 0.06
31595 H 47.87560988217322 54.0841689233045 58.91980597280953 H 0.0 **** 0.06
31596 C 12.550875009266434 74.97327748921856 44.78399279612761 C 0.0 **** -0.24
31597 H 13.60789059295385 75.23310131899312 44.836159005370874 H 0.0 **** 0.06
31598 H 12.266287505206918 74.82003967219174 43.74274553574183 H 0.0 **** 0.06
31599 H 11.956083884537321 75.78144725761823 45.20916197583402 H 0.0 **** 0.06
31600 H 12.373701895714333 74.05639475457525 45.34739363892393 H 0.0 **** 0.06
31601 C 46.815002081514024 32.86645623466026 91.37111590381295 C 0.0 **** -0.24
31602 H 46.562791283321076 32.214456265317125 92.2064154811813 H 0.0 **** 0.06
31603 H 47.67038370144809 32.45591397203634 90.83389986220811 H 0.0 **** 0.06
31604 H 47.06441899608632 33.85903570710832 91.74792349519754 H 0.0 **** 0.06
31605 H 45.96249739400611 32.937816976565074 90.69602769738805 H 0.0 **** 0.06
31606 C 18.697259456227357 21.060215117764983 65.50226040587604 C 0.0 **** -0.24
31607 H 18.203317522579965 21.864930202951882 66.04747571881448 H 0.0 **** 0.06
31608 H 19.6198526559472 21.435806627106956 65.05834423275992 H 0.0 **** 0.06
31609 H 18.036144296044966 20.696825750800883 64.71501034624963 H 0.0 **** 0.06
31610 H 18.9283141170298 20.246048210593187 66.18888233961675 H 0.0 **** 0.06
31611 C 17.302334311830634 32.593006823607666 103.32592026098035 C 0.0 **** -0.24
31612 H 17.127771794451576 32.94117602542729 102.30744744242367 H 0.0 **** 0.06
31613 H 17.706112327195342 31.580675325881053 103.29969088013175 H 0.0 **** 0.06
31614 H 16.362143749005043 32.59598950394067 103.87665929048379 H 0.0 **** 0.06
31615 H 18.014510315835395 33.2560581765205 103.818135657201 H 0.0 **** 0.06
31616 C 87.18227195537767 90.1604912259548 56.28264011218516 C 0.0 **** -0.24
31617 H 87.16123112106627 90.30683191513805 57.3622767938034 H 0.0 **** 0.06
31618 H 87.9980530778025 90.74323601673913 55.853408900728255 H 0.0 **** 0.06
31619 H 86.2350874789083 90.48957030372529 55.8536898849851 H 0.0 **** 0.06
31620 H 87.33459096006976 89.10445170777044 56.06239681486329 H 0.0 **** 0.06
31621 C 65.59154921512004 73.72744685416548 75.4841591715037 C 0.0 **** -0.24
31622 H 66.48347037467147 73.11189108601144 75.59992806359065 H 0.0 **** 0.06
31623 H 65.34962594096953 74.19901931887105 76.43719080617839 H 0.0 **** 0.06
31624 H 64.75802041465101 73.10090961060064 75.1659319714922 H 0.0 **** 0.06
31625 H 65.77537536474807 74.49553577026366 74.73360269513407 H 0.0 **** 0.06
31626 C 0.29420530826294566 48.0145236150149 28.24985532167824 C 0.0 **** -0.24
31627 H 0.6717167481506294 48.696899857786676 27.488282288205653 H 0.0 **** 0.06
31628 H 1.0747522398216347 47.302119276708055 28.51754967895144 H 0.0 **** 0.06
31629 H -0.5704643857461633 47.47705163814228 27.86054066578346 H 0.0 **** 0.06
31630 H 0.0016270928771859872 48.58315397429135 29.133304964040676 H 0.0 **** 0.06
31631 C 87.29729643053213 28.033771770614294 5.309758470621645 C 0.0 **** -0.24
31632 H 88.22790760409742 27.853911159468794 4.770855191961687 H 0.0 **** 0.06
31633 H 87.1474331063726 27.246057628812935 6.0479753178895805 H 0.0 **** 0.06
31634 H 86.46584808662419 28.03603611108167 4.605817298702007 H 0.0 **** 0.06
31635 H 87.34993756960318 28.99891294664127 5.813288126794575 H 0.0 **** 0.06
31636 C 30.352602767488236 76.4579229275819 57.39684335731542 C 0.0 **** -0.24
31637 H 30.760096590097206 76.33617133895456 58.400875270012335 H 0.0 **** 0.06
31638 H 30.054321032235976 77.49588932886651 57.249760190929436 H 0.0 **** 0.06
31639 H 29.485061503110686 75.80794602659464 57.27650234985339 H 0.0 **** 0.06
31640 H 31.11190140173555 76.18957554350895 56.662604328114185 H 0.0 **** 0.06
31641 C 77.70643254631267 54.32399367508748 43.83648122065858 C 0.0 **** -0.24
31642 H 76.74765180184642 54.23893246837128 43.3264530700901 H 0.0 **** 0.06
31643 H 77.55681658293966 54.21799647999484 44.91178929211162 H 0.0 **** 0.06
31644 H 78.14440736755341 55.299445441366764 43.625671829215975 H 0.0 **** 0.06
31645 H 78.37596415477583 53.54068351021782 43.48343696876989 H 0.0 **** 0.06
31646 C 44.73606804755181 4.018375326815942 61.854980134384476 C 0.0 **** -0.24
31647 H 43.834775115043925 4.249002341275684 62.42325027544743 H 0.0 **** 0.06
31648 H 44.58281573034171 3.0994589055926554 61.288134391490246 H 0.0 **** 0.06
31649 H 45.574097128051534 3.8882640735525342 62.54008673328221 H 0.0 **** 0.06
31650 H 44.95185243108176 4.837950086950684 61.16874251546872 H 0.0 **** 0.06
31651 C 44.311832686894036 0.3845077735016673 38.28972866675933 C 0.0 **** -0.24
31652 H 45.0204168150251 0.33015338178134357 39.11623205035052 H 0.0 **** 0.06
31653 H 43.843804405130584 1.3700454299286093 38.27781767058342 H 0.0 **** 0.06
31654 H 43.54640540720243 -0.38043696878762034 38.416674653111954 H 0.0 **** 0.06
31655 H 44.83782702045937 0.2208466403219802 37.349237467379325 H 0.0 **** 0.06
31656 C 71.5957999950287 19.916853880326443 66.65268105994696 C 0.0 **** -0.24
31657 H 72.65060252994544 19.92293555339006 66.38017733950865 H 0.0 **** 0.06
31658 H 71.40051278237698 20.71824021597493 67.36634668565857 H 0.0 **** 0.06
31659 H 71.34366304754354 18.95709996422366 67.10527155215982 H 0.0 **** 0.06
31660 H 70.98853743634874 20.068155993017257 65.76034953288523 H 0.0 **** 0.06
31661 C 106.18798925169108 51.46407761913326 95.94330408896431 C 0.0 **** -0.24
31662 H 105.9409493023428 51.494623510248516 97.00551782384377 H 0.0 **** 0.06
31663 H 107.26772671984668 51.366045957191204 95.82502238417925 H 0.0 **** 0.06
31664 H 105.85158499830288 52.383867057131 95.4660156815549 H 0.0 **** 0.06
31665 H 105.69197041072755 50.61103584206228 95.48031840691132 H 0.0 **** 0.06
31666 C 65.83296393396074 102.19626462419633 58.2540527156433 C 0.0 **** -0.24
31667 H 66.09066785965418 102.17867176150261 59.313614391289576 H 0.0 **** 0.06
31668 H 65.1456332894321 103.02086706006654 58.06206269485588 H 0.0 **** 0.06
31669 H 65.35723527716718 101.25492731605436 57.98016406204857 H 0.0 **** 0.06
31670 H 66.73869095970551 102.33186109725138 57.66357170320293 H 0.0 **** 0.06
31671 C 14.1147435374817 73.6272113821082 81.76631549530478 C 0.0 **** -0.24
31672 H 13.409780221886706 74.32134665857117 82.22557764628979 H 0.0 **** 0.06
31673 H 14.679639417903275 74.14362074260289 80.99040718182732 H 0.0 **** 0.06
31674 H 13.567593497815466 72.79309781185427 81.32520080854516 H 0.0 **** 0.06
31675 H 14.800106389451912 73.25125893039996 82.52638539547235 H 0.0 **** 0.06
31676 C 41.53198499058706 66.44319070074926 2.785624887930794 C 0.0 **** -0.24
31677 H 41.84376509902834 66.14292727113656 1.7856150324628572 H 0.0 **** 0.06
31678 H 42.057855752240165 67.35482305459877 3.0709074531816043 H 0.0 **** 0.06
31679 H 41.76898623241626 65.64976332454245 3.49377464222718 H 0.0 **** 0.06
31680 H 40.457138507867406 66.62642538139008 2.7914416359679706 H 0.0 **** 0.06
31681 C 8.38376136949787 35.30690268826615 82.19242252907308 C 0.0 **** -0.24
31682 H 8.163640061697375 34.3373512841965 81.74438855341928 H 0.0 **** 0.06
31683 H 7.689564217456947 36.05205566858385 81.80269685521866 H 0.0 **** 0.06
31684 H 9.405481789431128 35.59660575770204 81.94428893086595 H 0.0 **** 0.06
31685 H 8.277162645520491 35.23950531214015 83.27457730571686 H 0.0 **** 0.06
31686 C 59.27930902506091 85.16511754789079 97.42041629621173 C 0.0 **** -0.24
31687 H 58.62362688336384 85.652459316147 96.69962257755975 H 0.0 **** 0.06
31688 H 58.71324778140206 84.42046900781213 97.98161591214495 H 0.0 **** 0.06
31689 H 59.681006282210205 85.9098480160473 98.10751130405384 H 0.0 **** 0.06
31690 H 60.09930884920044 84.6769336297613 96.89410703317043 H 0.0 **** 0.06
31691 C 77.28960583437008 78.09273690339046 70.74362909085417 C 0.0 **** -0.24
31692 H 76.9376480602836 79.10691588774012 70.55546052765521 H 0.0 **** 0.06
31693 H 77.56508439385154 77.99291567986597 71.79421276759982 H 0.0 **** 0.06
31694 H 78.15956461502495 77.88933237025452 70.11974609522053 H 0.0 **** 0.06
31695 H 76.49763547259252 77.382479502497 70.50659308716607 H 0.0 **** 0.06
31696 C 51.08263103025627 44.699233352505985 71.33028218266159 C 0.0 **** -0.24
31697 H 50.953357327580356 44.10109728296422 72.2322867607178 H 0.0 **** 0.06
31698 H 50.70141202079111 44.14865117875516 70.47025890139294 H 0.0 **** 0.06
31699 H 52.14217299763711 44.91235406831959 71.18454220260774 H 0.0 **** 0.06
31700 H 50.53501781662808 45.636540116906076 71.43416941115764 H 0.0 **** 0.06
31701 C 58.55538588568663 89.13299535690523 96.59102073322669 C 0.0 **** -0.24
31702 H 57.9173835408522 90.01263160319044 96.51186429283213 H 0.0 **** 0.06
31703 H 59.202380895436534 89.07343711923494 95.71416606141986 H 0.0 **** 0.06
31704 H 57.9346939164065 88.23890370655147 96.64605970312543 H 0.0 **** 0.06
31705 H 59.16786659657129 89.20664971034044 97.48969927747086 H 0.0 **** 0.06
31706 C 21.849387824606765 7.769454677513551 71.90602463434413 C 0.0 **** -0.24
31707 H 21.405970880367448 8.590124192501039 71.34219871790367 H 0.0 **** 0.06
31708 H 21.075119964651364 7.0466130852322095 72.16581702132447 H 0.0 **** 0.06
31709 H 22.30415696898413 8.158606885104682 72.81716090664872 H 0.0 **** 0.06
31710 H 22.61230348442419 7.2824745472162 71.29892189149984 H 0.0 **** 0.06
31711 C 95.16643104092407 62.3758673969364 80.50324813651629 C 0.0 **** -0.24
31712 H 95.80483823844287 63.120242554153606 80.02808126865374 H 0.0 **** 0.06
31713 H 95.78127453871639 61.56143309894085 80.88530561642791 H 0.0 **** 0.06
31714 H 94.45723264808902 61.986215965275875 79.77320149907297 H 0.0 **** 0.06
31715 H 94.62225070105 62.8377222372861 81.32824429504066 H 0.0 **** 0.06
31716 C 74.02123955413816 40.61812497096988 41.88076783559397 C 0.0 **** -0.24
31717 H 73.23654286164776 41.25488419279961 42.28859681369414 H 0.0 **** 0.06
31718 H 73.65172651698867 40.11335210841973 40.98736857203676 H 0.0 **** 0.06
31719 H 74.30978354107629 39.874939487237185 42.62479166588801 H 0.0 **** 0.06
31720 H 74.88681900697571 41.22792930447429 41.622097025103216 H 0.0 **** 0.06
31721 C 30.696322683535527 33.69726454465274 73.89999045943114 C 0.0 **** -0.24
31722 H 29.767267637056676 34.24170296172653 73.72718334585153 H 0.0 **** 0.06
31723 H 31.526232918210326 34.40293265136236 73.95204133691544 H 0.0 **** 0.06
31724 H 30.864420007353345 32.99709744943351 73.08176431077658 H 0.0 **** 0.06
31725 H 30.626084777474787 33.14899068298925 74.83973039238572 H 0.0 **** 0.06
31726 C 97.61334242133653 90.32835856738629 20.578508627851903 C 0.0 **** -0.24
31727 H 96.87161305342468 90.18421949243051 21.36431152550118 H 0.0 **** 0.06
31728 H 98.60274164107219 90.08614158680894 20.965842854058806 H 0.0 **** 0.06
31729 H 97.59533383198625 91.36698325185998 20.248705428208467 H 0.0 **** 0.06
31730 H 97.38175295717257 89.67545589419882 19.736545944836934 H 0.0 **** 0.06
31731 C 41.79306911944724 13.196622061967965 48.78037918067287 C 0.0 **** -0.24
31732 H 42.22188715401751 14.18032268346293 48.58535878169147 H 0.0 **** 0.06
31733 H 42.54264650705295 12.562584005614276 49.254590336191484 H 0.0 **** 0.06
31734 H 41.477031531825105 12.745128858021463 47.840541541793726 H 0.0 **** 0.06
31735 H 40.933794277610616 13.300875120058738 49.442301924891325 H 0.0 **** 0.06
31736 C 10.795099690104166 24.504386609223786 82.64950734840438 C 0.0 **** -0.24
31737 H 11.32540605638087 24.84083087482304 81.75805226385269 H 0.0 **** 0.06
31738 H 9.84435814915173 25.03222992390846 82.72666745585113 H 0.0 **** 0.06
31739 H 11.399979254054074 24.713841286704536 83.53234210451454 H 0.0 **** 0.06
31740 H 10.611650953528283 23.432881708479044 82.58091112865773 H 0.0 **** 0.06
31741 C 53.019732367139625 41.61627527228552 34.27516025380797 C 0.0 **** -0.24
31742 H 53.72990977160663 41.9097708308567 35.048481104183594 H 0.0 **** 0.06
31743 H 52.74239648306525 42.490887841457806 33.68699245907558 H 0.0 **** 0.06
31744 H 52.12957667618062 41.19332918687999 34.74129669550601 H 0.0 **** 0.06
31745 H 53.47840928086475 40.87131010731517 33.62563268740357 H 0.0 **** 0.06
31746 C 26.627735304095722 92.5194524005395 55.68892136411227 C 0.0 **** -0.24
31747 H 25.82155067400828 92.46800991630451 56.41978158152945 H 0.0 **** 0.06
31748 H 27.41982606328321 91.82622988092382 55.97295393181049 H 0.0 **** 0.06
31749 H 27.026330152123023 93.53316584221463 55.65800401532867 H 0.0 **** 0.06
31750 H 26.244047912922213 92.24986478710258 54.705163674427865 H 0.0 **** 0.06
31751 C 61.617353808257846 100.31602786043743 6.94247541264582 C 0.0 **** -0.24
31752 H 62.43989715248749 99.65397660549172 7.215384460249254 H 0.0 **** 0.06
31753 H 61.65160089227089 101.2115416411466 7.563671802299325 H 0.0 **** 0.06
31754 H 60.66908101294095 99.80037786206395 7.100398121746423 H 0.0 **** 0.06
31755 H 61.70908840250007 100.59577361439398 5.893760146347404 H 0.0 **** 0.06
31756 C 14.64543552291957 12.941633651296456 14.312355774686154 C 0.0 **** -0.24
31757 H 15.472778010127001 13.309389355604651 13.705754719821499 H 0.0 **** 0.06
31758 H 14.139205048623381 13.783582719244407 14.785587458833106 H 0.0 **** 0.06
31759 H 15.028151196003819 12.26865244254924 15.079800055867565 H 0.0 **** 0.06
31760 H 13.940932302977558 12.40453077676608 13.676183244791844 H 0.0 **** 0.06
31761 C 2.670392563378684 24.78673516587756 34.12362720981875 C 0.0 **** -0.24
31762 H 2.4265746057374145 24.321268388028614 35.079759151794946 H 0.0 **** 0.06
31763 H 3.6358199259295674 24.4183317153429 33.77605040598627 H 0.0 **** 0.06
31764 H 2.7169315142741226 25.86810624914284 34.24878060251248 H 0.0 **** 0.06
31765 H 1.901263412114588 24.538268638896227 33.39309768358001 H 0.0 **** 0.06
31766 C 51.669480948183384 18.894816167867976 38.31453624638692 C 0.0 **** -0.24
31767 H 52.75719134602457 18.841845314887497 38.283281952170825 H 0.0 **** 0.06
31768 H 51.30941172775665 19.469059562439174 37.46054185787253 H 0.0 **** 0.06
31769 H 51.355735373123245 19.380860325550017 39.23840068595837 H 0.0 **** 0.06
31770 H 51.25591780129802 17.88711189225263 38.27506066166359 H 0.0 **** 0.06
31771 C 60.92704486529662 56.728010588102165 41.90488146497114 C 0.0 **** -0.24
31772 H 60.890434022616674 55.920804399947514 42.63742674663109 H 0.0 **** 0.06
31773 H 61.03896489936126 57.68150895536476 42.42053973670943 H 0.0 **** 0.06
31774 H 60.00453469875459 56.73419258438972 41.32553578366259 H 0.0 **** 0.06
31775 H 61.77527373561139 56.57309584660766 41.23743337410377 H 0.0 **** 0.06
31776 C 53.438200426642 53.40989901857515 77.85962378047022 C 0.0 **** -0.24
31777 H 53.79545848403782 54.194179996465714 78.52705073481269 H 0.0 **** 0.06
31778 H 54.05778431055384 52.52101801206601 77.97892206212605 H 0.0 **** 0.06
31779 H 53.49520747840518 53.75810014934283 76.82786900450982 H 0.0 **** 0.06
31780 H 52.40402370011549 53.16857258326519 78.10380552456049 H 0.0 **** 0.06
31781 C 93.68422307650502 65.24288059911107 2.9245981251198128 C 0.0 **** -0.24
31782 H 94.65201434378605 65.64031958757556 3.229730885419978 H 0.0 **** 0.06
31783 H 93.18109601866345 65.9676268891933 2.281924927577955 H 0.0 **** 0.06
31784 H 93.07295085809662 65.05422068967295 3.8072415583362638 H 0.0 **** 0.06
31785 H 93.82980846373675 64.31166644461533 2.377125934266383 H 0.0 **** 0.06
31786 C 106.39842675327426 31.40805488828957 35.84147323629896 C 0.0 **** -0.24
31787 H 107.42137756151438 31.248880424017173 36.18041242551398 H 0.0 **** 0.06
31788 H 106.35652973212652 31.313346702508454 34.755966557345964 H 0.0 **** 0.06
31789 H 106.07121031856194 32.40707916972451 36.13150538890832 H 0.0 **** 0.06
31790 H 105.74414637336501 30.665145504762336 36.29605378173589 H 0.0 **** 0.06
31791 C 46.36509889297745 57.10248561460418 7.886795741480995 C 0.0 **** -0.24
31792 H 45.836347723498605 56.789233936808444 6.986571716784383 H 0.0 **** 0.06
31793 H 46.01564383812734 58.09088710841013 8.188106941365206 H 0.0 **** 0.06
31794 H 47.43549786908306 57.14190743333023 7.684873334538281 H 0.0 **** 0.06
31795 H 46.1727693300751 56.388806648366824 8.688719328768045 H 0.0 **** 0.06
31796 C 69.81901490974204 1.0864044211802195 80.37435562897534 C 0.0 **** -0.24
31797 H 68.9065546700606 1.4176607153420377 80.87034181397428 H 0.0 **** 0.06
31798 H 69.64195539776763 1.005667306577834 79.30248432431128 H 0.0 **** 0.06
31799 H 70.11396396069141 0.11353946195913522 80.76892448705814 H 0.0 **** 0.06
31800 H 70.61513034143977 1.8088271443628514 80.55824255200773 H 0.0 **** 0.06
31801 C 29.43259275302293 82.29205569949184 43.31303945556513 C 0.0 **** -0.24
31802 H 30.322735136032634 81.98027767988245 42.76758399021989 H 0.0 **** 0.06
31803 H 28.779160327872745 82.85705747299946 42.64893424620752 H 0.0 **** 0.06
31804 H 29.724187113938996 82.9179003245226 44.15705544232185 H 0.0 **** 0.06
31805 H 28.90524176730534 81.41066279576913 43.68022370290154 H 0.0 **** 0.06
31806 C 23.839097250417808 25.396424179569664 7.452757484636239 C 0.0 **** -0.24
31807 H 24.37265879663208 24.632903538943083 8.019883634094386 H 0.0 **** 0.06
31808 H 23.519047751636435 24.980695119021902 6.496497871804976 H 0.0 **** 0.06
31809 H 24.49807320402833 26.246570861904928 7.27796047943008 H 0.0 **** 0.06
31810 H 22.966348502112425 25.7233266406964 8.01773190384108 H 0.0 **** 0.06
31811 C 77.78816344874895 104.92948352345208 1.9185349091210924 C 0.0 **** -0.24
31812 H 77.10225656400871 104.68214799600146 2.7290215588318603 H 0.0 **** 0.06
31813 H 78.43208102108497 104.07386722478246 1.7142835156585505 H 0.0 **** 0.06
31814 H 78.3991513328188 105.78387366029443 2.2066649565098686 H 0.0 **** 0.06
31815 H 77.21726232356764 105.1768331054275 1.0232149525132428 H 0.0 **** 0.06
31816 C 17.689607478674873 26.179465102166596 39.28422558963837 C 0.0 **** -0.24
31817 H 17.0641153280134 27.00825742737995 39.61459132706031 H 0.0 **** 0.06
31818 H 17.061366991293227 25.39570748372342 38.86056344960758 H 0.0 **** 0.06
31819 H 18.24360272731687 25.78196193931223 40.13400212398827 H 0.0 **** 0.06
31820 H 18.389985776335465 26.53224760242915 38.5270449874092 H 0.0 **** 0.06
31821 C 85.40365602795674 49.8494657200215 91.29275709325566 C 0.0 **** -0.24
31822 H 85.27606002993245 48.809005794992345 91.59174893094905 H 0.0 **** 0.06
31823 H 84.80729829354149 50.489318383386944 91.94299221832648 H 0.0 **** 0.06
31824 H 85.07496911685101 49.97247597182184 90.26043101359829 H 0.0 **** 0.06
31825 H 86.45535316253668 50.12488446046274 91.37525188453577 H 0.0 **** 0.06
31826 C 45.713109591419574 106.71765912775174 75.78553055846831 C 0.0 **** -0.24
31827 H 45.11783146047631 106.69152636949508 74.87246880726951 H 0.0 **** 0.06
31828 H 45.267428931308935 106.05533664568651 76.5282595973438 H 0.0 **** 0.06
31829 H 45.738030756543594 107.73542598605468 76.17369833254673 H 0.0 **** 0.06
31830 H 46.72868630819301 106.38668152396866 75.5654566527169 H 0.0 **** 0.06
31831 C 59.32156023757119 52.84147195964369 98.05989499391448 C 0.0 **** -0.24
31832 H 58.742001001714556 52.945403582241404 97.14257006751224 H 0.0 **** 0.06
31833 H 59.594326829462176 53.82994168492865 98.43085960304363 H 0.0 **** 0.06
31834 H 60.226464656448115 52.26818293582625 97.85458676946068 H 0.0 **** 0.06
31835 H 58.724985731886335 52.323190695806744 98.80984702216602 H 0.0 **** 0.06
31836 C 85.70389776919647 27.028160171639016 59.69931238906459 C 0.0 **** -0.24
31837 H 86.1119040490127 27.021741624623242 60.709443236339695 H 0.0 **** 0.06
31838 H 84.68033276530713 27.403763495032436 59.72340783871025 H 0.0 **** 0.06
31839 H 85.70954481939927 26.013846303906526 59.299383359995076 H 0.0 **** 0.06
31840 H 86.31352525611346 27.672333897384863 59.06509611736681 H 0.0 **** 0.06
31841 C 76.77547234634395 81.23900566693277 74.6910389202864 C 0.0 **** -0.24
31842 H 77.16131999493265 81.0021170032833 75.68266035502405 H 0.0 **** 0.06
31843 H 77.58502536940456 81.62462873176474 74.07028331410899 H 0.0 **** 0.06
31844 H 75.99230468584145 81.99212878684045 74.7756714845819 H 0.0 **** 0.06
31845 H 76.36566880626032 80.33744045195775 74.23565234771314 H 0.0 **** 0.06
31846 C 3.9683615068897238 70.23753926030548 60.528668844566084 C 0.0 **** -0.24
31847 H 3.8360318658187706 71.1381426918756 59.929217407909505 H 0.0 **** 0.06
31848 H 4.759766045679372 69.62596881532545 60.09562711086363 H 0.0 **** 0.06
31849 H 3.0368504118256423 69.67002004259433 60.541852558750406 H 0.0 **** 0.06
31850 H 4.238609299690066 70.51550329674251 61.54700955178134 H 0.0 **** 0.06
31851 C 28.293093980977467 93.6633112692332 28.450558527246244 C 0.0 **** -0.24
31852 H 29.305161515610507 93.27089976269608 28.545706759740995 H 0.0 **** 0.06
31853 H 28.195397527929448 94.18906953986577 27.499944819342545 H 0.0 **** 0.06
31854 H 28.091780853050174 94.35413516194367 29.26947494192592 H 0.0 **** 0.06
31855 H 27.579587000097998 92.8407782685238 28.48534216073199 H 0.0 **** 0.06
31856 C 46.090945739576625 81.96252099582415 89.4576379518902 C 0.0 **** -0.24
31857 H 46.11507856909793 81.8786918975382 88.3704760219759 H 0.0 **** 0.06
31858 H 45.085712579483925 82.23407307645033 89.77823336449272 H 0.0 **** 0.06
31859 H 46.795680266887814 82.7290249829681 89.7784237745464 H 0.0 **** 0.06
31860 H 46.36801446801712 81.00539343089105 89.90165995532476 H 0.0 **** 0.06
31861 C 41.393975302942664 14.53712870952728 90.23035919049492 C 0.0 **** -0.24
31862 H 40.79344063050246 14.625876225339795 89.32526600473629 H 0.0 **** 0.06
31863 H 40.73689270906581 14.420862486649483 91.09208787515216 H 0.0 **** 0.06
31864 H 42.00078312655418 15.434298981794115 90.35425225891248 H 0.0 **** 0.06
31865 H 42.04562755161302 13.666200747920016 90.15064341372057 H 0.0 **** 0.06
31866 C 54.9595459059305 10.70605736214253 65.69985025566433 C 0.0 **** -0.24
31867 H 54.707122850519056 11.757866263443816 65.83457347787805 H 0.0 **** 0.06
31868 H 54.40083832261283 10.304465855321212 64.85470009910767 H 0.0 **** 0.06
31869 H 54.70078707132063 10.153055602670065 66.6026218830429 H 0.0 **** 0.06
31870 H 56.027915466380136 10.610215225683817 65.50840199822863 H 0.0 **** 0.06
31871 C 88.34664857786997 13.902110400482059 102.40836433440964 C 0.0 **** -0.24
31872 H 89.18918948204576 13.892485500055813 101.71618810095036 H 0.0 **** 0.06
31873 H 87.73539754054296 14.786064695522029 102.2236328314901 H 0.0 **** 0.06
31874 H 88.7182882343825 13.924300472112975 103.43244061995598 H 0.0 **** 0.06
31875 H 87.74403184686754 13.005361706087598 102.2589935487345 H 0.0 **** 0.06
31876 C 82.37266177167945 31.96652833966553 96.88358544265829 C 0.0 **** -0.24
31877 H 82.6206116006781 30.90947530142722 96.97884012876784 H 0.0 **** 0.06
31878 H 82.54563260391316 32.46689478142349 97.83721393198375 H 0.0 **** 0.06
31879 H 81.32544495424315 32.07020378226727 96.60214454492863 H 0.0 **** 0.06
31880 H 83.00173873875556 32.41852184172339 96.1166247146352 H 0.0 **** 0.06
31881 C 23.16385191778562 96.86655979137632 39.49861785685994 C 0.0 **** -0.24
31882 H 22.07936400479332 96.92232560129875 39.60008171002653 H 0.0 **** 0.06
31883 H 23.467906439198032 95.8218723808256 39.4313142095325 H 0.0 **** 0.06
31884 H 23.63420270803516 97.3285028788994 40.36636401925284 H 0.0 **** 0.06
31885 H 23.470318695929507 97.39363961154689 38.59473251354581 H 0.0 **** 0.06
31886 C 12.352451810790196 98.70875709191989 37.751400228649274 C 0.0 **** -0.24
31887 H 12.315174908037836 97.65698700344538 37.467578411930475 H 0.0 **** 0.06
31888 H 11.514400424755946 98.93690610952198 38.41030965165038 H 0.0 **** 0.06
31889 H 12.290645389267587 99.32739265482745 36.85689441653675 H 0.0 **** 0.06
31890 H 13.28874458175406 98.9117272393903 38.27033917415798 H 0.0 **** 0.06
31891 C 32.2394395669708 70.72231751144054 9.781785796654077 C 0.0 **** -0.24
31892 H 31.916797311901952 69.68607647785318 9.674011645877975 H 0.0 **** 0.06
31893 H 32.2939660810678 70.97764871691106 10.840008144462244 H 0.0 **** 0.06
31894 H 31.523975983510915 71.37838959729477 9.285453234693183 H 0.0 **** 0.06
31895 H 33.22195493887069 70.84545804720894 9.326676317849238 H 0.0 **** 0.06
31896 C 60.69358550493308 43.69864822035151 36.852997889704994 C 0.0 **** -0.24
31897 H 61.357156930586314 44.4043206140557 36.35396872467576 H 0.0 **** 0.06
31898 H 60.63342011904001 43.94435847996594 37.9136916938904 H 0.0 **** 0.06
31899 H 61.0830607820464 42.687959298368305 36.73557316191788 H 0.0 **** 0.06
31900 H 59.69934344670298 43.75830904993232 36.40890884785725 H 0.0 **** 0.06
31901 C 53.958575867286136 58.19643677092894 20.237022865990127 C 0.0 **** -0.24
31902 H 53.40804571991761 59.0257410132374 19.794326945272967 H 0.0 **** 0.06
31903 H 53.52095598778018 57.2536221618297 19.908903741544478 H 0.0 **** 0.06
31904 H 53.90423298294559 58.262659991583575 21.323641953889215 H 0.0 **** 0.06
31905 H 55.00158618100688 58.243032470988524 19.92233877372846 H 0.0 **** 0.06
31906 C 23.162148642564176 80.11894076453436 91.12565271042905 C 0.0 **** -0.24
31907 H 22.358145884707966 80.82272859295522 91.33846933513101 H 0.0 **** 0.06
31908 H 22.737774654879388 79.181364447734 90.76527080444001 H 0.0 **** 0.06
31909 H 23.732412317800623 79.93283836643874 92.03649298628719 H 0.0 **** 0.06
31910 H 23.81935927701049 80.53765456132138 90.3643271633886 H 0.0 **** 0.06
31911 C 50.11044082212811 11.934469429127398 3.888174094211962 C 0.0 **** -0.24
31912 H 49.54304241057764 11.534806262568479 3.0475064330375403 H 0.0 **** 0.06
31913 H 51.086099181425084 12.273074528378496 3.5388460499085284 H 0.0 **** 0.06
31914 H 50.241969448520365 11.15720863726447 4.639985588186818 H 0.0 **** 0.06
31915 H 49.56886714429811 12.774512203857316 4.324672501933435 H 0.0 **** 0.06
31916 C 94.97325365638747 21.162347196527605 49.012127168571624 C 0.0 **** -0.24
31917 H 95.33728364519968 21.740759696439795 48.16191781857094 H 0.0 **** 0.06
31918 H 94.45817390225986 21.825600341709332 49.70756721194272 H 0.0 **** 0.06
31919 H 95.81550468929666 20.689826291608426 49.51597816517307 H 0.0 **** 0.06
31920 H 94.28248860955935 20.395876214302405 48.661132042841984 H 0.0 **** 0.06
31921 C 82.0738391948714 48.54913846510465 3.9311452259441353 C 0.0 **** -0.24
31922 H 82.15891960653488 47.998702234380175 2.993382965852817 H 0.0 **** 0.06
31923 H 82.62340108141001 49.487341931114656 3.851322170808359 H 0.0 **** 0.06
31924 H 82.48990437767452 47.95105494947046 4.742299718451164 H 0.0 **** 0.06
31925 H 81.02382823550715 48.75814995422854 4.134965916120365 H 0.0 **** 0.06
31926 C 40.74828850871497 99.28646956065518 14.926374306776651 C 0.0 **** -0.24
31927 H 41.38744023135892 100.0377549511131 14.461518320725997 H 0.0 **** 0.06
31928 H 40.48489005419576 98.52797209760561 14.189037496387119 H 0.0 **** 0.06
31929 H 39.840440517614944 99.76269978289568 15.297358849909475 H 0.0 **** 0.06
31930 H 41.279347604277845 98.8197232709069 15.75591926729938 H 0.0 **** 0.06
31931 C 82.73116429126861 94.46248939503994 50.39569332356982 C 0.0 **** -0.24
31932 H 82.96570722077195 95.26007659152246 51.10157719965732 H 0.0 **** 0.06
31933 H 82.75756761446786 93.50235404437329 50.91231479279106 H 0.0 **** 0.06
31934 H 83.46517512532517 94.4633803267488 49.590707020641915 H 0.0 **** 0.06
31935 H 81.73586596338481 94.62557626347441 49.98161525657423 H 0.0 **** 0.06
31936 C 93.7443737878099 106.13928001139922 35.1211385639724 C 0.0 **** -0.24
31937 H 94.23786415155412 105.62064654625799 35.943131447656945 H 0.0 **** 0.06
31938 H 92.66611683081085 105.98923032846706 35.19301927558879 H 0.0 **** 0.06
31939 H 94.1037732357025 105.74083121842537 34.172283300743715 H 0.0 **** 0.06
31940 H 93.96741187157731 107.2041018798614 35.17660966347482 H 0.0 **** 0.06
31941 C 31.338779446833485 103.76675198296246 10.876962495778457 C 0.0 **** -0.24
31942 H 31.449419488861764 102.69942011651649 10.68364098146776 H 0.0 **** 0.06
31943 H 32.12072034652277 104.313244814524 10.349173004769455 H 0.0 **** 0.06
31944 H 31.423994250470514 103.95212576402906 11.947904009579133 H 0.0 **** 0.06
31945 H 30.362226493965437 104.09868914854866 10.52703868705612 H 0.0 **** 0.06
31946 C 64.01634289236074 82.66819886598026 55.34185361721569 C 0.0 **** -0.24
31947 H 63.61075149885261 83.63760650162732 55.630938642744354 H 0.0 **** 0.06
31948 H 63.45845540162594 81.87711790482837 55.84305335243778 H 0.0 **** 0.06
31949 H 65.06541114895492 82.61293250730016 55.63147595957827 H 0.0 **** 0.06
31950 H 63.93039780481462 82.54607311918956 54.26195618294878 H 0.0 **** 0.06
31951 C 87.21463883702043 67.4840464692331 73.17261353258328 C 0.0 **** -0.24
31952 H 87.173078573244 67.29278529156282 72.10026535221854 H 0.0 **** 0.06
31953 H 86.20212700595593 67.58058646535508 73.56474939694283 H 0.0 **** 0.06
31954 H 87.76529773443232 68.4074510079388 73.35521582299577 H 0.0 **** 0.06
31955 H 87.7198014811085 66.6553562753132 73.6692542420052 H 0.0 **** 0.06
31956 C 15.370596990197186 22.88266056805574 4.130507352642951 C 0.0 **** -0.24
31957 H 14.368581396604952 23.097742847819774 4.503153457044846 H 0.0 **** 0.06
31958 H 16.035715230752743 22.68087912623858 4.97038514199977 H 0.0 **** 0.06
31959 H 15.741414624591457 23.74077643258326 3.569643583331356 H 0.0 **** 0.06
31960 H 15.334910986728374 22.01014110369573 3.4775563300833596 H 0.0 **** 0.06
31961 C 28.801510492592172 60.991367748885196 2.2711066507863222 C 0.0 **** -0.24
31962 H 28.00245011644415 60.33162518325762 1.9330608455707363 H 0.0 **** 0.06
31963 H 29.283127698858863 61.45008508455166 1.4074800036634514 H 0.0 **** 0.06
31964 H 29.535328867854645 60.414056970869915 2.833984602292986 H 0.0 **** 0.06
31965 H 28.38450847057331 61.76909318857376 2.9103852521413387 H 0.0 **** 0.06
31966 C 85.77720887806235 62.30811686292948 64.58148497243558 C 0.0 **** -0.24
31967 H 86.2574818225475 62.181394967746925 65.55233728938398 H 0.0 **** 0.06
31968 H 85.51800923895544 61.331289492831814 64.17352476627615 H 0.0 **** 0.06
31969 H 86.46193093924487 62.81652663123597 63.90217359663754 H 0.0 **** 0.06
31970 H 84.87329217247637 62.90486006940533 64.69960693037272 H 0.0 **** 0.06
31971 C 9.954022223168508 93.74075957403426 31.92968001426297 C 0.0 **** -0.24
31972 H 9.675986078769824 92.68673155034847 31.899520687682738 H 0.0 **** 0.06
31973 H 10.217753377525412 94.07570728515965 30.926546617083886 H 0.0 **** 0.06
31974 H 10.807427631956728 93.87194863067077 32.59394297798167 H 0.0 **** 0.06
31975 H 9.112203848212744 94.32742040037856 32.2983948591953 H 0.0 **** 0.06
31976 C 103.73098168884941 6.60614305393517 29.602449170029757 C 0.0 **** -0.24
31977 H 103.3505978449723 7.200982012807529 30.433249074687467 H 0.0 **** 0.06
31978 H 103.6261417146175 5.546694126107894 29.836045512570678 H 0.0 **** 0.06
31979 H 104.78311150982088 6.840451316253663 29.440788472522087 H 0.0 **** 0.06
31980 H 103.16374427326966 6.838408430734418 28.700730672619557 H 0.0 **** 0.06
31981 C 16.62725184153885 1.8575552224151721 59.77163654854985 C 0.0 **** -0.24
31982 H 16.679494027361216 1.8291575435830651 60.859674231267434 H 0.0 **** 0.06
31983 H 17.540423837535002 2.3024802527389454 59.3757270227253 H 0.0 **** 0.06
31984 H 15.768624633836964 2.4550104686517784 59.46450258160979 H 0.0 **** 0.06
31985 H 16.52046486742222 0.8435726246868427 59.38664235859687 H 0.0 **** 0.06
31986 C 69.84208273468185 28.781690831775336 18.09165744395881 C 0.0 **** -0.24
31987 H 70.3721253390209 29.15477275857799 18.96773986027216 H 0.0 **** 0.06
31988 H 69.73562812914108 27.698348089751548 18.16672902662316 H 0.0 **** 0.06
31989 H 70.406202826611 29.03023076286496 17.193299451078815 H 0.0 **** 0.06
31990 H 68.85532116931492 29.241245033095538 18.041187396129487 H 0.0 **** 0.06
31991 C 60.803095966434284 75.03047250728625 0.8378486423612532 C 0.0 **** -0.24
31992 H 59.87788123648346 74.45408164078707 0.8642497520717978 H 0.0 **** 0.06
31993 H 61.60595060267377 74.44988940486542 1.294037723639173 H 0.0 **** 0.06
31994 H 60.66755384851757 75.95978034067616 1.391263495120965 H 0.0 **** 0.06
31995 H 61.060389909374464 75.25677665010414 -0.19727599057388367 H 0.0 **** 0.06
31996 C 97.58631185971316 10.094628964387653 85.55628496749358 C 0.0 **** -0.24
31997 H 96.77391993601506 10.478670726902862 86.17231738695665 H 0.0 **** 0.06
31998 H 98.39698176515066 9.749339405322019 86.19843149476594 H 0.0 **** 0.06
31999 H 97.9528498165295 10.887662780090182 84.9039023839452 H 0.0 **** 0.06
32000 H 97.22334178539063 9.265207118049261 84.95042626195527 H 0.0 **** 0.06
32001 C 30.058863524853564 97.3835934344189 21.847128829581038 C 0.0 **** -0.24
32002 H 30.775413855954895 97.75347106292229 22.57983055900354 H 0.0 **** 0.06
32003 H 29.608715884192662 98.22582132075829 21.321790852828684 H 0.0 **** 0.06
32004 H 29.280445173426443 96.8141579150991 22.356100164055647 H 0.0 **** 0.06
32005 H 30.570020276854365 96.73954365482297 21.13139258249123 H 0.0 **** 0.06
32006 C 10.093231400432813 1.206905509473998 95.80018406936165 C 0.0 **** -0.24
32007 H 9.120220361201376 1.0922363922864093 95.32408203416082 H 0.0 **** 0.06
32008 H 9.956139232147308 1.5262530800472405 96.83348586054498 H 0.0 **** 0.06
32009 H 10.675359821767245 1.954988007246456 95.26244829360667 H 0.0 **** 0.06
32010 H 10.62049547046422 0.2525408060904937 95.78168084172614 H 0.0 **** 0.06
32011 C 63.447470765009115 47.530038869086184 28.29750765089119 C 0.0 **** -0.24
32012 H 62.94745286194825 48.05829420681934 27.486888743344025 H 0.0 **** 0.06
32013 H 63.949983329555636 48.24951088013029 28.944580977549094 H 0.0 **** 0.06
32014 H 64.18252131723284 46.83946912397511 27.882035752475247 H 0.0 **** 0.06
32015 H 62.711553419066405 46.97325016867367 28.876062426113208 H 0.0 **** 0.06
32016 C 103.5405195419595 35.16334943341326 20.18022667222405 C 0.0 **** -0.24
32017 H 103.65670326965909 34.314547826628086 20.855054753080708 H 0.0 **** 0.06
32018 H 103.1959536611422 36.030917351093365 20.743017015644824 H 0.0 **** 0.06
32019 H 102.81120980533677 34.91663273021726 19.409184620673756 H 0.0 **** 0.06
32020 H 104.49987457468342 35.389811907768035 19.713507871118054 H 0.0 **** 0.06
32021 C 75.56297617406182 78.37190075768422 9.980834414489124 C 0.0 **** -0.24
32022 H 75.35497116580595 78.87073875321329 10.927265217974991 H 0.0 **** 0.06
32023 H 76.33316048264973 77.61502888626654 10.130279457140546 H 0.0 **** 0.06
32024 H 75.91034063579144 79.10522972018038 9.25282872382192 H 0.0 **** 0.06
32025 H 74.65348069319296 77.89722240538657 9.61217854038901 H 0.0 **** 0.06
32026 C 73.37923008414623 49.61850227823686 86.15351894794091 C 0.0 **** -0.24
32027 H 72.87981142443522 50.09910461688108 86.99489467333194 H 0.0 **** 0.06
32028 H 74.42469041193155 49.928456986592465 86.12799321351613 H 0.0 **** 0.06
32029 H 72.88967731667509 49.91157938486981 85.22500207348511 H 0.0 **** 0.06
32030 H 73.32328351564593 48.53635268836089 86.2687358041309 H 0.0 **** 0.06
32031 C 68.50282533393201 89.33494990549744 53.16813423355933 C 0.0 **** -0.24
32032 H 68.88552950822937 88.95023873130995 52.22334352218894 H 0.0 **** 0.06
32033 H 69.3311250041865 89.7068025455331 53.77159922596957 H 0.0 **** 0.06
32034 H 67.99159699414132 88.5355717128972 53.70539472790722 H 0.0 **** 0.06
32035 H 67.80231276616888 90.14640397144555 52.97355751499691 H 0.0 **** 0.06
32036 C 74.06615582260395 4.544080222633795 11.069569594764857 C 0.0 **** -0.24
32037 H 74.55456250203096 3.7611430391430645 11.647039807654778 H 0.0 **** 0.06
32038 H 74.27602148494421 5.514306209956203 11.521088916038082 H 0.0 **** 0.06
32039 H 72.98957927659347 4.372167800401115 11.062584557310686 H 0.0 **** 0.06
32040 H 74.4419601870373 4.52993091799334 10.046449079465162 H 0.0 **** 0.06
32041 C 8.453626828243017 34.48138158943425 71.8877569633809 C 0.0 **** -0.24
32042 H 9.011679006113724 33.702191152692706 72.40787308731568 H 0.0 **** 0.06
32043 H 8.058265932746053 34.08127792842237 70.95319042827137 H 0.0 **** 0.06
32044 H 9.115926185018964 35.31980933710304 71.672447477649 H 0.0 **** 0.06
32045 H 7.630394017209937 34.81966929636292 72.51601313412758 H 0.0 **** 0.06
32046 C 87.97622407594099 45.49821586289732 85.41507206932758 C 0.0 **** -0.24
32047 H 87.32414239837928 44.703102029092356 85.05346567043495 H 0.0 **** 0.06
32048 H 88.94801522736402 45.42065538912667 84.92790267277758 H 0.0 **** 0.06
32049 H 88.10068600801443 45.40286140269832 86.49380163136703 H 0.0 **** 0.06
32050 H 87.5297871395524 46.46638861520234 85.18603858339725 H 0.0 **** 0.06
32051 C 89.07506694238985 10.890545674567065 73.51873652204154 C 0.0 **** -0.24
32052 H 88.30306878681674 11.641989038277103 73.35956576897868 H 0.0 **** 0.06
32053 H 89.21379549003545 10.731744659796036 74.58826788994745 H 0.0 **** 0.06
32054 H 90.01169460284144 11.231194197247419 73.0765793669672 H 0.0 **** 0.06
32055 H 88.77205231743466 9.953807871343088 73.04911836630222 H 0.0 **** 0.06
32056 C 90.5335067605714 16.65558904391669 45.604667410006954 C 0.0 **** -0.24
32057 H 90.2790366265039 15.890138140315553 46.33679206241064 H 0.0 **** 0.06
32058 H 91.53431314890213 16.467303920785145 45.214217595270696 H 0.0 **** 0.06
32059 H 90.50816827611453 17.636143813134144 46.080371128543675 H 0.0 **** 0.06
32060 H 89.81342503918616 16.631331048110603 44.78651180803706 H 0.0 **** 0.06
32061 C 96.70628493734871 24.385796795299143 11.498004663628905 C 0.0 **** -0.24
32062 H 96.02043632726709 23.689197739523266 11.017374785619353 H 0.0 **** 0.06
32063 H 96.16038449304828 25.276128901512195 11.809422603636818 H 0.0 **** 0.06
32064 H 97.4905194684316 24.667068522115542 10.795140433731007 H 0.0 **** 0.06
32065 H 97.15484809516099 23.9102676318428 12.370871702481168 H 0.0 **** 0.06
32066 C 37.328785847880965 76.51472045033239 19.275434941810147 C 0.0 **** -0.24
32067 H 36.56724079709551 77.05896329902171 19.833687170163174 H 0.0 **** 0.06
32068 H 37.600080663320796 75.60961557434705 19.819909043587373 H 0.0 **** 0.06
32069 H 38.21023735217909 77.14492923308282 19.155219033592957 H 0.0 **** 0.06
32070 H 36.938108238725135 76.24574039491142 18.29418602835841 H 0.0 **** 0.06
32071 C 94.78392982671794 57.814264895704866 22.743940232307125 C 0.0 **** -0.24
32072 H 93.91092762166014 57.76941551561578 22.09332255641209 H 0.0 **** 0.06
32073 H 95.36570961781707 58.70575950473993 22.510279513859047 H 0.0 **** 0.06
32074 H 95.39892034483988 56.92770181073197 22.587427312914116 H 0.0 **** 0.06
32075 H 94.46057630425365 57.85286279752872 23.784438399300882 H 0.0 **** 0.06
32076 C 3.196794703378174 22.7872411869337 21.203303666941864 C 0.0 **** -0.24
32077 H 3.0733396291146846 22.295105239571683 20.238404823494495 H 0.0 **** 0.06
32078 H 2.5378802093715933 23.65357168105791 21.25536939285657 H 0.0 **** 0.06
32079 H 4.231515656334864 23.10919681482264 21.316955722805393 H 0.0 **** 0.06
32080 H 2.9434244904337845 22.08942866207059 22.002038897984733 H 0.0 **** 0.06
32081 C 99.40206699513833 100.39588913889172 53.088214399948754 C 0.0 **** -0.24
32082 H 98.5539013646423 99.7434311405898 52.88182081543974 H 0.0 **** 0.06
32083 H 99.2314582246786 100.92797774231605 54.02444626380239 H 0.0 **** 0.06
32084 H 99.5133799461421 101.11452803642392 52.27608985169326 H 0.0 **** 0.06
32085 H 100.30871369917311 99.7970914220865 53.1702614514906 H 0.0 **** 0.06
32086 C 3.5101979371238485 15.084485883804778 98.33863227717924 C 0.0 **** -0.24
32087 H 3.373906987403373 15.019730589859407 99.41831429224683 H 0.0 **** 0.06
32088 H 2.5406949824199927 15.212239186003355 97.8577499689799 H 0.0 **** 0.06
32089 H 3.9786202816645897 14.168566185622854 97.97745177927021 H 0.0 **** 0.06
32090 H 4.1482032615985815 15.936303332087725 98.1035388079562 H 0.0 **** 0.06
32091 C 17.50962091604407 22.796674712976227 24.263926200669317 C 0.0 **** -0.24
32092 H 16.869546961422486 21.985879703187948 23.91602177007897 H 0.0 **** 0.06
32093 H 16.91773090701821 23.50087489580443 24.848381514586464 H 0.0 **** 0.06
32094 H 17.94357666330859 23.310781841199145 23.40625669390255 H 0.0 **** 0.06
32095 H 18.30703625064848 22.388363782801406 24.884941242707868 H 0.0 **** 0.06
32096 C 49.82397979635321 62.06469402473434 21.93267704620419 C 0.0 **** -0.24
32097 H 49.220967346943276 61.2906418962246 21.45857371332218 H 0.0 **** 0.06
32098 H 49.813237010589354 61.92143802866505 23.013048744906826 H 0.0 **** 0.06
32099 H 49.41191808755608 63.04456523483154 21.690533929794128 H 0.0 **** 0.06
32100 H 50.84864535267953 62.00179611440757 21.567301862001813 H 0.0 **** 0.06
32101 C 19.485121545091374 86.56327814656103 3.995141340947356 C 0.0 **** -0.24
32102 H 19.78727948624919 87.57750915034566 3.7313993794199973 H 0.0 **** 0.06
32103 H 19.759401140518065 85.8819143081353 3.1889808176353824 H 0.0 **** 0.06
32104 H 18.406013781349344 86.53356111385071 4.144807715075785 H 0.0 **** 0.06
32105 H 19.98744402834592 86.26202275227683 4.914241990981594 H 0.0 **** 0.06
32106 C 13.50318726466632 106.18350635837976 59.00000651322567 C 0.0 **** -0.24
32107 H 12.77059632183786 106.16887852910932 58.193239366296694 H 0.0 **** 0.06
32108 H 13.836652370766267 105.1668597214802 59.20648003125455 H 0.0 **** 0.06
32109 H 13.04803396542772 106.6066416562597 59.895567068034325 H 0.0 **** 0.06
32110 H 14.357411360593677 106.79283772562027 58.70398082229842 H 0.0 **** 0.06
32111 C 3.064359671076673 24.781489233403274 12.677367169978666 C 0.0 **** -0.24
32112 H 2.2968894899423447 24.273631097038002 12.09315287038757 H 0.0 **** 0.06
32113 H 2.869550827706945 25.853445557521493 12.678713348329978 H 0.0 **** 0.06
32114 H 4.041826363174039 24.58987201927068 12.236256805709274 H 0.0 **** 0.06
32115 H 3.047534838245184 24.406511283158952 13.70105374427905 H 0.0 **** 0.06
32116 C 104.44311019914345 38.25545029506992 36.23785490394502 C 0.0 **** -0.24
32117 H 104.83805017732759 37.49612137559319 35.56211030502854 H 0.0 **** 0.06
32118 H 104.40636004248992 39.21582368046779 35.72243357120206 H 0.0 **** 0.06
32119 H 105.09012486963938 38.335989272090615 37.1110703266105 H 0.0 **** 0.06
32120 H 103.43918765676213 37.97278187638477 36.5540222390745 H 0.0 **** 0.06
32121 C 101.9256224810695 58.702651858056285 41.86750371831869 C 0.0 **** -0.24
32122 H 101.13501100694947 59.34787204851357 41.482298336281985 H 0.0 **** 0.06
32123 H 102.13353535746361 58.96468870706774 42.90506800450618 H 0.0 **** 0.06
32124 H 102.82770061234484 58.83755141107463 41.27070738519916 H 0.0 **** 0.06
32125 H 101.60524672867996 57.66267404746629 41.81143052633644 H 0.0 **** 0.06
32126 C 60.532484158007335 43.71579162542207 61.44274587458591 C 0.0 **** -0.24
32127 H 60.03434032667473 43.21018401686865 60.6157045442601 H 0.0 **** 0.06
32128 H 60.011446496127135 44.64660267854589 61.66562077379413 H 0.0 **** 0.06
32129 H 61.564487221822375 43.93377882718761 61.16631866367854 H 0.0 **** 0.06
32130 H 60.52020105300021 43.072612081798695 62.322496914937176 H 0.0 **** 0.06
32131 C 64.18812353995429 84.43280146672913 63.72399833690767 C 0.0 **** -0.24
32132 H 64.68350089784975 85.26428364886306 63.22330448677313 H 0.0 **** 0.06
32133 H 64.93753758047747 83.7401016684891 64.10670616833447 H 0.0 **** 0.06
32134 H 63.54178807628193 83.91476416929362 63.0142042697223 H 0.0 **** 0.06
32135 H 63.587665736835305 84.81317744861616 64.55092051542103 H 0.0 **** 0.06
32136 C 16.504109306517904 97.41973462323469 28.05144177262858 C 0.0 **** -0.24
32137 H 15.868543704018435 96.76786926943808 28.650033946353773 H 0.0 **** 0.06
32138 H 17.48543787741002 96.95912646211364 27.930527990798225 H 0.0 **** 0.06
32139 H 16.612860705046955 98.38090040069152 28.553802385753016 H 0.0 **** 0.06
32140 H 16.05000518941307 97.57084667860155 27.072293525519115 H 0.0 **** 0.06
32141 C 39.75719324194367 14.405726213955631 25.025763979653902 C 0.0 **** -0.24
32142 H 39.84062043011127 15.350673408827845 25.560614717112458 H 0.0 **** 0.06
32143 H 40.00530050529298 13.583910613052552 25.698649323082236 H 0.0 **** 0.06
32144 H 40.44631661407698 14.40422016124306 24.180753059330073 H 0.0 **** 0.06
32145 H 38.73708049774399 14.282160345986611 24.662070185577875 H 0.0 **** 0.06
32146 C 50.841076060502985 36.19250866643836 104.68968118327078 C 0.0 **** -0.24
32147 H 51.16481172074259 35.22553794189173 105.07346041975504 H 0.0 **** 0.06
32148 H 50.13170307801764 36.04065583947988 103.874740999222 H 0.0 **** 0.06
32149 H 51.70523280837085 36.7448598539454 104.32097401723775 H 0.0 **** 0.06
32150 H 50.3611385559052 36.7587709506451 105.488577156629 H 0.0 **** 0.06
32151 C 20.51870171654094 77.35599581310471 95.14078969521724 C 0.0 **** -0.24
32152 H 20.072111783289536 76.65609958974538 94.43432000099007 H 0.0 **** 0.06
32153 H 19.96176242889858 78.29258026131792 95.12606268416867 H 0.0 **** 0.06
32154 H 21.555134490564182 77.54451832438903 94.85874868899336 H 0.0 **** 0.06
32155 H 20.487317290038938 76.92812558882129 96.14275466022897 H 0.0 **** 0.06
32156 C 33.6997190789102 61.17770885765799 70.8109937954311 C 0.0 **** -0.24
32157 H 34.58281219923832 61.71686506774756 70.46815151630972 H 0.0 **** 0.06
32158 H 33.789174222231296 60.12536753557592 70.54031270333692 H 0.0 **** 0.06
32159 H 32.810972787400836 61.599922452077124 70.3418643649513 H 0.0 **** 0.06
32160 H 33.61700587943503 61.26914277939821 71.89442174135027 H 0.0 **** 0.06
32161 C 63.47898696961468 30.669679501278495 105.14981208734737 C 0.0 **** -0.24
32162 H 63.21858908327442 29.63518381079055 104.9236653169374 H 0.0 **** 0.06
32163 H 64.36355055815378 30.690683005645752 105.78636202043528 H 0.0 **** 0.06
32164 H 62.647706142439944 31.14844259566459 105.66692597441453 H 0.0 **** 0.06
32165 H 63.68540818137586 31.203205941640732 104.22256374975993 H 0.0 **** 0.06
32166 C 72.84402968541859 24.61578187731851 66.03443118012386 C 0.0 **** -0.24
32167 H 72.33300786572133 25.576308255327064 66.1108808571001 H 0.0 **** 0.06
32168 H 72.13785103531542 23.85496417795389 65.70245552885572 H 0.0 **** 0.06
32169 H 73.24510126365495 24.33968341820838 67.00913723478253 H 0.0 **** 0.06
32170 H 73.65849139594923 24.694633584307525 65.31485130026681 H 0.0 **** 0.06
32171 C 9.449354296051467 38.70830769641101 103.8598592684871 C 0.0 **** -0.24
32172 H 9.248614661099879 37.702501842580006 103.4923775149872 H 0.0 **** 0.06
32173 H 10.399332526229415 38.71678652579353 104.39562437252198 H 0.0 **** 0.06
32174 H 8.650207045823436 39.01604697256409 104.5331711223352 H 0.0 **** 0.06
32175 H 9.501322680298358 39.39841785205693 103.01756776227543 H 0.0 **** 0.06
32176 C 77.46816172934427 89.69837479124244 12.508339366625592 C 0.0 **** -0.24
32177 H 76.42868231832554 89.80092574118873 12.817702423967546 H 0.0 **** 0.06
32178 H 77.55215016202811 88.89302038387194 11.778183931106128 H 0.0 **** 0.06
32179 H 78.08536167333693 89.46700320262192 13.3771818046377 H 0.0 **** 0.06
32180 H 77.80645276368637 90.63254983728737 12.060289306790878 H 0.0 **** 0.06
32181 C 12.104999697875076 1.3081579832049215 47.60271536262492 C 0.0 **** -0.24
32182 H 12.77161067447183 0.45412293256893577 47.48713162875701 H 0.0 **** 0.06
32183 H 12.689804997322828 2.1965508986760938 47.84130601544352 H 0.0 **** 0.06
32184 H 11.398359698063054 1.1109484724614163 48.40910115406561 H 0.0 **** 0.06
32185 H 11.558598929399508 1.4709568824523558 46.67392130145126 H 0.0 **** 0.06
32186 C 28.013051535833085 17.966397896993556 7.5554794288712515 C 0.0 **** -0.24
32187 H 28.00486277017899 16.878480090962725 7.497183208129911 H 0.0 **** 0.06
32188 H 27.362051893613113 18.291994489283866 8.367175220427214 H 0.0 **** 0.06
32189 H 27.655506862748553 18.383597719056255 6.613308058813175 H 0.0 **** 0.06
32190 H 29.02942584036785 18.312904658041333 7.742533013510183 H 0.0 **** 0.06
32191 C 14.669993908384328 106.385703890368 9.667414678996986 C 0.0 **** -0.24
32192 H 15.048066883440093 106.09450550103605 8.687884184312782 H 0.0 **** 0.06
32193 H 14.837753544822124 107.45229304488694 9.820084359598708 H 0.0 **** 0.06
32194 H 15.192453434328247 105.82134902895203 10.440095311290468 H 0.0 **** 0.06
32195 H 13.601975362692485 106.17374279290283 9.722628909276601 H 0.0 **** 0.06
32196 C 51.47668038590385 67.71925242380502 64.40845887750125 C 0.0 **** -0.24
32197 H 51.90860089690918 68.58966262721646 64.90221433402589 H 0.0 **** 0.06
32198 H 51.14932762025356 67.99670637649166 63.40514322345878 H 0.0 **** 0.06
32199 H 50.62291159791701 67.36211451802563 64.98407686407806 H 0.0 **** 0.06
32200 H 52.22597179934726 66.93081425865614 64.34153115990496 H 0.0 **** 0.06
32201 C 23.80122612456897 8.127610142425993 45.98313820152805 C 0.0 **** -0.24
32202 H 24.355856905137358 9.017421561749686 45.68502404650431 H 0.0 **** 0.06
32203 H 22.825160363237302 8.12807433748435 45.497395320375034 H 0.0 **** 0.06
32204 H 23.6699271266274 8.12734132438851 47.065728733817366 H 0.0 **** 0.06
32205 H 24.356188587709156 7.237427369328373 45.684348852546236 H 0.0 **** 0.06
32206 C 46.06320771376006 51.506267723541754 77.8470698119024 C 0.0 **** -0.24
32207 H 46.07271859656133 51.914250951847876 76.83640917154906 H 0.0 **** 0.06
32208 H 46.94241053861152 51.856073817644926 78.38879098536731 H 0.0 **** 0.06
32209 H 46.07490244223544 50.41670511186088 77.79931708310758 H 0.0 **** 0.06
32210 H 45.162799277631855 51.83804101281322 78.36376200758556 H 0.0 **** 0.06
32211 C 40.23566704123476 60.72838181429434 40.441111761464725 C 0.0 **** -0.24
32212 H 41.23773151822661 61.15512536076852 40.48058862697279 H 0.0 **** 0.06
32213 H 40.06026378453234 60.131475580028 41.33649848435593 H 0.0 **** 0.06
32214 H 40.146165272578486 60.09487639695674 39.55858752335652 H 0.0 **** 0.06
32215 H 39.500685987035354 61.53123316121017 40.38800575158197 H 0.0 **** 0.06
32216 C 32.426617693138354 21.411899476942608 66.55286720808907 C 0.0 **** -0.24
32217 H 32.35491457518282 20.34179361058392 66.7428112105705 H 0.0 **** 0.06
32218 H 31.94843441490707 21.644309934990133 65.60077798600473 H 0.0 **** 0.06
32219 H 33.47615091798178 21.704248490676378 66.51363978245219 H 0.0 **** 0.06
32220 H 31.927705419711685 21.957358225043947 67.3535706363625 H 0.0 **** 0.06
32221 C 55.14400080409462 93.29404028560509 50.12817610821662 C 0.0 **** -0.24
32222 H 56.038064838983246 92.67803445489889 50.22454013259414 H 0.0 **** 0.06
32223 H 55.350507913112324 94.29623184594021 50.50588985059403 H 0.0 **** 0.06
32224 H 54.33266357152621 92.84883807831129 50.704190521623616 H 0.0 **** 0.06
32225 H 54.85509911894684 93.35341069623706 49.07941225380898 H 0.0 **** 0.06
32226 C 54.45303614032457 1.5344364910540094 17.90982012945895 C 0.0 **** -0.24
32227 H 54.198079346331156 0.5575914948209402 17.498429061494292 H 0.0 **** 0.06
32228 H 53.57380388867534 2.179202187188082 17.885911780028962 H 0.0 **** 0.06
32229 H 55.24857755983692 1.982064119376389 17.313899768886856 H 0.0 **** 0.06
32230 H 54.79089570032744 1.4179276009606383 18.939180740162627 H 0.0 **** 0.06
32231 C 89.46985564603585 52.12655599567618 103.89112147315132 C 0.0 **** -0.24
32232 H 89.16549216194738 52.82971823844129 103.11598895024699 H 0.0 **** 0.06
32233 H 89.49301058142427 51.11805998403142 103.47848805245579 H 0.0 **** 0.06
32234 H 88.7592443284112 52.166376831660244 104.71630662516625 H 0.0 **** 0.06
32235 H 90.46347548976503 52.39368968093126 104.25333686164225 H 0.0 **** 0.06
32236 C 91.68416578882811 11.384596853979835 61.06255970724709 C 0.0 **** -0.24
32237 H 90.98798889483935 11.227929661452794 61.88756571353804 H 0.0 **** 0.06
32238 H 91.18505733625952 11.94063194873511 60.26856004625 H 0.0 **** 0.06
32239 H 92.01592618649619 10.420649369749384 60.678976711198175 H 0.0 **** 0.06
32240 H 92.54561143847872 11.951581842740909 61.41710896482374 H 0.0 **** 0.06
32241 C 26.260765208777162 75.69000563821157 89.70775421838704 C 0.0 **** -0.24
32242 H 27.00615820738195 76.38154212619231 90.09896032033429 H 0.0 **** 0.06
32243 H 26.241924419587566 74.79042924580125 90.32299892327872 H 0.0 **** 0.06
32244 H 26.516307611262544 75.4231661957837 88.68161603934205 H 0.0 **** 0.06
32245 H 25.28031200241287 76.16432816021424 89.7264436336109 H 0.0 **** 0.06
32246 C 51.52699442143785 74.9316371876171 61.30161987730821 C 0.0 **** -0.24
32247 H 51.60230555637827 75.47305118460997 62.243887226875074 H 0.0 **** 0.06
32248 H 51.43716624067554 75.64325248969223 60.47991291059964 H 0.0 **** 0.06
32249 H 50.6483675206415 74.28747582693157 61.32210360634332 H 0.0 **** 0.06
32250 H 52.41975975132624 74.32323224696589 61.15977431141039 H 0.0 **** 0.06
32251 C 99.73074133256766 51.32212691426808 52.584698005070095 C 0.0 **** -0.24
32252 H 100.31525702542962 50.85732231385776 53.37916249836712 H 0.0 **** 0.06
32253 H 100.2408334283409 51.18595187243887 51.63174939084831 H 0.0 **** 0.06
32254 H 99.62089711939511 52.386564160174366 52.79094611755636 H 0.0 **** 0.06
32255 H 98.74604389906771 50.85694524893621 52.54067887925157 H 0.0 **** 0.06
32256 C 45.24152834056861 75.00754367179078 97.89052879952688 C 0.0 **** -0.24
32257 H 45.09112278323795 75.46346934738159 96.91180582181121 H 0.0 **** 0.06
32258 H 44.283856116997356 74.66459831201084 98.2819161930505 H 0.0 **** 0.06
32259 H 45.67097216984547 75.74196988717861 98.5711210332428 H 0.0 **** 0.06
32260 H 45.919977999024695 74.15998641055725 97.79504874119594 H 0.0 **** 0.06
32261 C 39.599547658517054 101.30577963728336 31.775253359801617 C 0.0 **** -0.24
32262 H 40.32368559454619 100.64265566627805 31.30301770834169 H 0.0 **** 0.06
32263 H 40.07724271941737 102.25852637102466 32.00653642802217 H 0.0 **** 0.06
32264 H 39.2347464706728 100.84886294397072 32.69500654517188 H 0.0 **** 0.06
32265 H 38.76398327871459 101.47346192305292 31.095618509693004 H 0.0 **** 0.06
32266 C 27.24571733566711 63.77354048693891 101.96148018281127 C 0.0 **** -0.24
32267 H 28.280959505083132 63.50489006370458 101.74889525018597 H 0.0 **** 0.06
32268 H 27.210193032041104 64.78172433992398 102.37521570849663 H 0.0 **** 0.06
32269 H 26.828736100195897 63.069336153388804 102.68095470060081 H 0.0 **** 0.06
32270 H 26.66507010377711 63.73791012665683 101.03961252198394 H 0.0 **** 0.06
32271 C 106.9389135114894 40.84824645238826 83.75290018686806 C 0.0 **** -0.24
32272 H 107.24419219531443 41.781987407100935 84.22529035120125 H 0.0 **** 0.06
32273 H 106.97516768843715 40.961198200505734 82.66852002764496 H 0.0 **** 0.06
32274 H 105.92265907978008 40.602012044040265 84.05973927860657 H 0.0 **** 0.06
32275 H 107.6147798386562 40.04970718940689 84.05813524175065 H 0.0 **** 0.06
32276 C 53.778393752885215 94.50536793260558 89.55216785526018 C 0.0 **** -0.24
32277 H 53.42251623560663 94.32843798743475 90.56742482862538 H 0.0 **** 0.06
32278 H 53.134457808418425 93.98328509519956 88.84495806754863 H 0.0 **** 0.06
32279 H 54.799007371618195 94.13420496301842 89.45581628059216 H 0.0 **** 0.06
32280 H 53.75938083351222 95.57517329405401 89.34176407346875 H 0.0 **** 0.06
32281 C 29.09274822367462 73.54893391934553 21.41396769475629 C 0.0 **** -0.24
32282 H 29.684158178122175 74.46368469202966 21.45683970619952 H 0.0 **** 0.06
32283 H 28.709431524858104 73.41209324717627 20.40249714402402 H 0.0 **** 0.06
32284 H 28.258225862510557 73.62248344754562 22.11183776701563 H 0.0 **** 0.06
32285 H 29.71807104369293 72.69831834728825 21.684443589390785 H 0.0 **** 0.06
32286 C 78.1228223963034 106.72734158647276 9.331224197683241 C 0.0 **** -0.24
32287 H 77.36647158864008 106.00504850318652 9.635299482589232 H 0.0 **** 0.06
32288 H 78.39811595506887 106.54839589781398 8.291208973824666 H 0.0 **** 0.06
32289 H 79.0042231407565 106.61897423636731 9.963547665608985 H 0.0 **** 0.06
32290 H 77.7250498193358 107.73658816367683 9.433336833761189 H 0.0 **** 0.06
32291 C 0.6401574595190027 40.127381802411435 102.01943988125961 C 0.0 **** -0.24
32292 H 0.8026056008982749 39.378677040366 102.79426854059128 H 0.0 **** 0.06
32293 H -0.140247144783757 40.81817158776403 102.3406343589277 H 0.0 **** 0.06
32294 H 0.33341774774851274 39.635505743052164 101.09696638709735 H 0.0 **** 0.06
32295 H 1.5654244349628073 40.6786067534627 101.84779243467037 H 0.0 **** 0.06
32296 C 38.32611425246799 45.191603392480715 57.09933924816198 C 0.0 **** -0.24
32297 H 38.326730839714486 44.10107537011493 57.10134240242871 H 0.0 **** 0.06
32298 H 39.33468003812382 45.55484913050327 57.29532718725898 H 0.0 **** 0.06
32299 H 37.65201914543735 45.55524399510614 57.875464268888436 H 0.0 **** 0.06
32300 H 37.99087942515817 45.5525768167621 56.127427488954936 H 0.0 **** 0.06
32301 C 105.5315212816929 63.95277513586842 6.699659611041236 C 0.0 **** -0.24
32302 H 106.56209592926515 63.69505253192801 6.457224826859715 H 0.0 **** 0.06
32303 H 105.06057769013366 64.42123578582255 5.83484488613581 H 0.0 **** 0.06
32304 H 105.51825638014782 64.64538436571337 7.540878475637236 H 0.0 **** 0.06
32305 H 104.98444951701288 63.047858589413295 6.96588935894307 H 0.0 **** 0.06
32306 C 20.647705448412268 75.59629430688787 51.140385270916 C 0.0 **** -0.24
32307 H 19.843054188993705 74.92034105595371 50.851814240343 H 0.0 **** 0.06
32308 H 20.46499876477364 75.96868106280503 52.14817297675063 H 0.0 **** 0.06
32309 H 20.684284799527234 76.43394697251247 50.44339050600763 H 0.0 **** 0.06
32310 H 21.596960528192113 75.06185596276447 51.11580640216482 H 0.0 **** 0.06
32311 C 80.14925103893135 78.91563516246515 9.006756992795715 C 0.0 **** -0.24
32312 H 79.43586699870612 79.70903838944332 8.78568189254058 H 0.0 **** 0.06
32313 H 81.12125335096796 79.17316684114962 8.585808472625828 H 0.0 **** 0.06
32314 H 79.80088859884009 77.98032880042769 8.570409361410867 H 0.0 **** 0.06
32315 H 80.24009045184032 78.8003466758712 10.087292748407265 H 0.0 **** 0.06
32316 C 44.88735667615015 64.48224539998407 102.66774537426437 C 0.0 **** -0.24
32317 H 44.52022172950598 63.95809051003242 101.7856329842221 H 0.0 **** 0.06
32318 H 44.04176785009582 64.84658956053566 103.2515163893574 H 0.0 **** 0.06
32319 H 45.5052830481344 65.32490648459839 102.35822803297758 H 0.0 **** 0.06
32320 H 45.48146945116645 63.7995629628915 103.27489476884843 H 0.0 **** 0.06
32321 C 6.299133167688808 81.74393684562489 25.840149899243727 C 0.0 **** -0.24
32322 H 7.3237924484732275 81.37184054596355 25.843219535518443 H 0.0 **** 0.06
32323 H 5.630420700108715 80.96829594911082 26.21417472417741 H 0.0 **** 0.06
32324 H 6.012602828044777 82.01135878458331 24.822909223857835 H 0.0 **** 0.06
32325 H 6.230244089740609 82.62342897018777 26.48008551297059 H 0.0 **** 0.06
32326 C 82.87702927282464 66.64145774675274 3.8788809201807055 C 0.0 **** -0.24
32327 H 82.00028758480664 65.9951905337162 3.8242323580036697 H 0.0 **** 0.06
32328 H 83.71613602929352 66.08073220198506 4.2900881660305 H 0.0 **** 0.06
32329 H 82.65922802144985 67.49447369959961 4.521119256490238 H 0.0 **** 0.06
32330 H 83.13035628852208 66.99498985086012 2.8794890178524497 H 0.0 **** 0.06
32331 C 28.59399414783161 57.02289619101842 83.47297921239158 C 0.0 **** -0.24
32332 H 29.22577658682701 56.35296172189706 82.88874508223216 H 0.0 **** 0.06
32333 H 28.024451245075113 57.66368329571068 82.79994023173208 H 0.0 **** 0.06
32334 H 29.21872544861816 57.638783794139016 84.12007965328749 H 0.0 **** 0.06
32335 H 27.908232134592993 56.43502975277195 84.08263173064486 H 0.0 **** 0.06
32336 C 24.396348398463743 6.86395825911714 35.55840851664074 C 0.0 **** -0.24
32337 H 24.442506264561473 6.102012403851347 36.33706679449426 H 0.0 **** 0.06
32338 H 23.355980891095157 7.0324506568652225 35.278211224900105 H 0.0 **** 0.06
32339 H 24.95796389543537 6.527600767457699 34.68826124851837 H 0.0 **** 0.06
32340 H 24.827215290074435 7.792399463217265 35.933118214143846 H 0.0 **** 0.06
32341 C 0.8290452040248653 41.82682767223105 32.87239995393236 C 0.0 **** -0.24
32342 H 1.4480150943381744 42.14627404249791 32.03293936535337 H 0.0 **** 0.06
32343 H 1.4570590015132154 41.687301334900496 33.752990002775505 H 0.0 **** 0.06
32344 H 0.3391151783086741 40.885831477572026 32.62334290692982 H 0.0 **** 0.06
32345 H 0.07676966406137353 42.586648784842 33.078183773867266 H 0.0 **** 0.06
32346 C 76.89429965898677 11.93897541952387 27.942414642340964 C 0.0 **** -0.24
32347 H 77.96000392079578 12.10949061706981 27.794108739355067 H 0.0 **** 0.06
32348 H 76.71949321369478 10.881014437931128 28.139964662532236 H 0.0 **** 0.06
32349 H 76.35143987421938 12.23647444377741 27.044711274495853 H 0.0 **** 0.06
32350 H 76.54585883677922 12.52957191884721 28.789684065057713 H 0.0 **** 0.06
32351 C 71.63056507007576 84.05736609814886 28.99857911117182 C 0.0 **** -0.24
32352 H 72.34381393293322 83.26904233265903 28.760265545476074 H 0.0 **** 0.06
32353 H 70.95267338482347 83.70934319367895 29.7776931006792 H 0.0 **** 0.06
32354 H 71.0590503664852 84.31233112967712 28.106015672023858 H 0.0 **** 0.06
32355 H 72.16766055674884 84.9390944091998 29.350332436761335 H 0.0 **** 0.06
32356 C 12.042531556095842 1.7231165087716818 91.51263384782182 C 0.0 **** -0.24
32357 H 12.319668390929278 2.5603557741933116 90.87071533726109 H 0.0 **** 0.06
32358 H 12.244242724634834 0.7858302622005198 90.9943484144958 H 0.0 **** 0.06
32359 H 10.980485608493503 1.7856645520031833 91.75181348504027 H 0.0 **** 0.06
32360 H 12.625610996041342 1.763045146590926 92.43337041952094 H 0.0 **** 0.06
32361 C 62.269363183693216 80.00331145633714 101.54850810629858 C 0.0 **** -0.24
32362 H 62.38731885106323 81.04037503356722 101.86358322668787 H 0.0 **** 0.06
32363 H 62.53087581098566 79.3413931160429 102.3738994981183 H 0.0 **** 0.06
32364 H 62.924465967312685 79.8047449578242 100.70130310460866 H 0.0 **** 0.06
32365 H 61.233742104143545 79.82815185727304 101.25618666227138 H 0.0 **** 0.06
32366 C 67.32129835325723 4.739824970062045 52.67120979306605 C 0.0 **** -0.24
32367 H 66.65301240986244 4.443106362937925 51.86303118692859 H 0.0 **** 0.06
32368 H 66.96721271483916 4.314509333883535 53.61026553009295 H 0.0 **** 0.06
32369 H 67.3388132406097 5.82717501488608 52.74741236337649 H 0.0 **** 0.06
32370 H 68.32723660499948 4.373802755498076 52.463554499514586 H 0.0 **** 0.06
32371 C 78.68170789282962 28.24072104195355 8.064330469039106 C 0.0 **** -0.24
32372 H 78.32781156671754 27.876315841949207 9.028677887301754 H 0.0 **** 0.06
32373 H 77.82874512287991 28.42742140511922 7.411943167996768 H 0.0 **** 0.06
32374 H 79.33069171605591 27.493018940128223 7.609468702170631 H 0.0 **** 0.06
32375 H 79.23862966756606 29.166984299306364 8.2083973215978 H 0.0 **** 0.06
32376 C 45.426114111665214 44.917500550729244 56.228633961327176 C 0.0 **** -0.24
32377 H 45.13018544320607 45.958892913982965 56.100900295666634 H 0.0 **** 0.06
32378 H 45.01426276928836 44.32005824823702 55.416013619860934 H 0.0 **** 0.06
32379 H 45.04581375828217 44.54775370575817 57.18110319400944 H 0.0 **** 0.06
32380 H 46.513751367742266 44.8456108892467 56.21942592794119 H 0.0 **** 0.06
32381 C 56.021350919698925 3.240594479589104 84.37553960703951 C 0.0 **** -0.24
32382 H 55.61196367100215 3.123732168402727 85.37942706661094 H 0.0 **** 0.06
32383 H 56.05225066825584 2.2688324790052627 83.8814388204422 H 0.0 **** 0.06
32384 H 57.03111669652692 3.6471657594874465 84.44072109979008 H 0.0 **** 0.06
32385 H 55.39139085094831 3.9207736161116093 83.80352973283641 H 0.0 **** 0.06
32386 C 30.35078039715785 90.07279612397663 48.02392112628172 C 0.0 **** -0.24
32387 H 29.764367957038473 90.96014935177467 47.78455858123354 H 0.0 **** 0.06
32388 H 29.68925590021024 89.29119205635553 48.39912398298182 H 0.0 **** 0.06
32389 H 31.08932955612579 90.32117357066988 48.78655637412146 H 0.0 **** 0.06
32390 H 30.858684050618535 89.71978349533723 47.12704453609766 H 0.0 **** 0.06
32391 C 72.97649708650115 75.82041267188282 10.433986841864368 C 0.0 **** -0.24
32392 H 72.04595460196552 75.49578492188175 10.899127890122116 H 0.0 **** 0.06
32393 H 72.76818045837024 76.62404593592868 9.726745350602101 H 0.0 **** 0.06
32394 H 73.43149592522961 74.98210161083108 9.906810106202386 H 0.0 **** 0.06
32395 H 73.66074646577815 76.18062668864417 11.203111292702943 H 0.0 **** 0.06
32396 C 65.16036280083333 3.1265518250822026 106.02974420556703 C 0.0 **** -0.24
32397 H 64.52283263993186 3.1615623653470806 105.14633871427418 H 0.0 **** 0.06
32398 H 64.72395565822207 3.741722953305654 106.81707960265987 H 0.0 **** 0.06
32399 H 66.15071624818778 3.5070775712023305 105.77829053873762 H 0.0 **** 0.06
32400 H 65.2441853297962 2.096791670029461 106.37748193078613 H 0.0 **** 0.06
32401 C 2.7176355952323235 42.23550057018181 10.524182892966962 C 0.0 **** -0.24
32402 H 3.7003755511587855 42.57066106088942 10.856138222905372 H 0.0 **** 0.06
32403 H 2.684201911655734 42.23440696072157 9.434249984588746 H 0.0 **** 0.06
32404 H 1.9533687128168538 42.90964293358641 10.910492224920404 H 0.0 **** 0.06
32405 H 2.53276848076203 41.227079628156986 10.89488908361568 H 0.0 **** 0.06
32406 C 67.72893702441289 64.56182399545605 33.277050898686014 C 0.0 **** -0.24
32407 H 68.20150769845137 65.49635395810552 33.58082129396132 H 0.0 **** 0.06
32408 H 67.27290588480463 64.08611123424635 34.14496140657167 H 0.0 **** 0.06
32409 H 68.47980654602597 63.89753501931533 32.84979008429971 H 0.0 **** 0.06
32410 H 66.96182308043058 64.7691917629622 32.53055271257492 H 0.0 **** 0.06
32411 C 74.35761801972268 37.25500630828964 34.72693153584487 C 0.0 **** -0.24
32412 H 73.71355395019475 38.04543131978119 35.113352963928726 H 0.0 **** 0.06
32413 H 73.90721400154194 36.28469855996062 34.93543762429842 H 0.0 **** 0.06
32414 H 75.33358396178929 37.31423395887484 35.20789955748841 H 0.0 **** 0.06
32415 H 74.47470345206821 37.377166240305655 33.65018242112776 H 0.0 **** 0.06
32416 C 7.909329886214024 78.13602230392098 79.5688670044147 C 0.0 **** -0.24
32417 H 7.885816545138255 78.6716146113306 78.62039156437916 H 0.0 **** 0.06
32418 H 8.904311074726067 77.71893748791607 79.72580144876599 H 0.0 **** 0.06
32419 H 7.176479417367204 77.32915642855295 79.54959594219727 H 0.0 **** 0.06
32420 H 7.67010737085711 78.82384416667486 80.38026728041564 H 0.0 **** 0.06
32421 C 106.28061353399272 1.771479439433989 26.57781857274631 C 0.0 **** -0.24
32422 H 105.4714680163779 1.049262474498022 26.46951394937531 H 0.0 **** 0.06
32423 H 107.23118785000844 1.2891605671764808 26.35035060550942 H 0.0 **** 0.06
32424 H 106.29819286342973 2.1454837796615607 27.60169622504216 H 0.0 **** 0.06
32425 H 106.12001255818014 2.60141130841356 25.890035100472375 H 0.0 **** 0.06
32426 C 101.56998305832835 7.1997088109473 83.6831579352874 C 0.0 **** -0.24
32427 H 100.95641821414634 6.559614210944176 84.31866236636398 H 0.0 **** 0.06
32428 H 102.40073906238916 7.598639877271012 84.26560724111056 H 0.0 **** 0.06
32429 H 100.96380400690816 8.021524055502482 83.30182163288634 H 0.0 **** 0.06
32430 H 101.95781108113354 6.616403034553514 82.84780979241066 H 0.0 **** 0.06
32431 C 78.4853791744489 3.520245738095383 26.99171827541585 C 0.0 **** -0.24
32432 H 79.5453505627159 3.5376534356095988 26.73735169790467 H 0.0 **** 0.06
32433 H 78.22045164172738 2.5342740918704436 27.373050159548114 H 0.0 **** 0.06
32434 H 77.89501131083642 3.7365483963478283 26.101347761577742 H 0.0 **** 0.06
32435 H 78.28263698935956 4.273137290837283 27.754194294392406 H 0.0 **** 0.06
32436 C 102.68834046398027 42.030338892506215 86.67965429280537 C 0.0 **** -0.24
32437 H 102.70670240249294 42.99383289927523 86.16986525244312 H 0.0 **** 0.06
32438 H 103.5395918941874 41.43109392861504 86.35485707237831 H 0.0 **** 0.06
32439 H 101.76209901892136 41.50887603166755 86.43758613463172 H 0.0 **** 0.06
32440 H 102.74561593311674 42.1887844924354 87.75656107627503 H 0.0 **** 0.06
32441 C 57.91074814010403 102.00116473657707 99.97047279117902 C 0.0 **** -0.24
32442 H 58.422168030013616 102.86358125704601 100.3966676947636 H 0.0 **** 0.06
32443 H 56.83680182696852 102.10252851952048 100.12752188018965 H 0.0 **** 0.06
32444 H 58.26533710370921 101.09254631549156 100.4583282977131 H 0.0 **** 0.06
32445 H 58.11994706846968 101.9459762938967 98.90227302507772 H 0.0 **** 0.06
32446 C 47.69996418225824 54.48503406986066 13.404916165874894 C 0.0 **** -0.24
32447 H 48.19404303206435 54.978072663677665 12.567701292796983 H 0.0 **** 0.06
32448 H 47.82325612735958 55.08871505156736 14.304976803445427 H 0.0 **** 0.06
32449 H 48.14527531110747 53.50250359064762 13.561391612898348 H 0.0 **** 0.06
32450 H 46.63836454262938 54.37266901916695 13.184886612001932 H 0.0 **** 0.06
32451 C 105.70743674236266 88.22568446655623 82.19697250576283 C 0.0 **** -0.24
32452 H 105.78400739917487 87.9590412770109 81.142272496818 H 0.0 **** 0.06
32453 H 105.38790763186122 87.3536650049322 82.7683033658841 H 0.0 **** 0.06
32454 H 104.9774215913753 89.02656185568455 82.31679329253953 H 0.0 **** 0.06
32455 H 106.67890591886473 88.56157814610756 82.55848148750368 H 0.0 **** 0.06
32456 C 93.19140674911145 63.97403715810819 11.340356174260364 C 0.0 **** -0.24
32457 H 93.20930106991293 65.04588339521325 11.14089644403299 H 0.0 **** 0.06
32458 H 94.21079225148225 63.588786551606916 11.344697962622746 H 0.0 **** 0.06
32459 H 92.6151041329209 63.47042644819916 10.564392100388233 H 0.0 **** 0.06
32460 H 92.7302957632204 63.79259219151717 12.310656664115015 H 0.0 **** 0.06
32461 C 93.62401868425934 44.24378881405251 0.7771154945590979 C 0.0 **** -0.24
32462 H 93.55295945388006 43.23852826349288 1.1904451958470759 H 0.0 **** 0.06
32463 H 94.3712985213116 44.81251499754984 1.331249160027994 H 0.0 **** 0.06
32464 H 92.65676283424347 44.73916547061076 0.857922479475917 H 0.0 **** 0.06
32465 H 93.91607613858854 44.18574451557504 -0.2717191151485281 H 0.0 **** 0.06
32466 C 69.85336138479308 59.8175294322495 69.91661477957848 C 0.0 **** -0.24
32467 H 70.90323187412994 59.61082826299264 69.71072341351015 H 0.0 **** 0.06
32468 H 69.59469784568014 60.80380679339055 69.52873214293578 H 0.0 **** 0.06
32469 H 69.68326503666134 59.79437741951699 70.99240837687432 H 0.0 **** 0.06
32470 H 69.23335733188125 59.06273173787997 69.43313560544675 H 0.0 **** 0.06
32471 C 102.46530901724913 0.07897713152341623 76.42907186007997 C 0.0 **** -0.24
32472 H 103.20928555900683 0.27336232812787387 75.65609123976407 H 0.0 **** 0.06
32473 H 102.969135716683 -0.1487217043010105 77.36805033192095 H 0.0 **** 0.06
32474 H 101.84809558424925 -0.768953558169926 76.13226581624812 H 0.0 **** 0.06
32475 H 101.83588817557968 0.9595585930903354 76.55638795146882 H 0.0 **** 0.06
32476 C 58.01196457263822 12.684272395005692 71.22008703855391 C 0.0 **** -0.24
32477 H 57.58977465642084 13.640493101814965 71.53050833524395 H 0.0 **** 0.06
32478 H 58.63088230463509 12.28285204445963 72.02415256506714 H 0.0 **** 0.06
32479 H 58.62240777877028 12.829202933490965 70.32939804325571 H 0.0 **** 0.06
32480 H 57.20479413545664 11.985739051359502 70.9981776230124 H 0.0 **** 0.06
32481 C 78.14343978497556 73.41029550895765 99.70303714486907 C 0.0 **** -0.24
32482 H 77.99030120950118 73.60625174865902 100.76408069528891 H 0.0 **** 0.06
32483 H 78.7875668011252 74.18221031632773 99.28045971914436 H 0.0 **** 0.06
32484 H 77.18169220050191 73.41800909450802 99.19039713617695 H 0.0 **** 0.06
32485 H 78.61408571629102 72.43484186377015 99.57819595082978 H 0.0 **** 0.06
32486 C 26.62165462558628 3.780470885690562 9.882763598476288 C 0.0 **** -0.24
32487 H 26.326667945315837 3.2667142311092334 8.968255190569693 H 0.0 **** 0.06
32488 H 26.997025341998686 3.05394482469039 10.60294995172589 H 0.0 **** 0.06
32489 H 25.7596399558779 4.299034262163161 10.302505714230762 H 0.0 **** 0.06
32490 H 27.40489147078323 4.504444872105594 9.654826139040438 H 0.0 **** 0.06
32491 C 14.386014678134245 66.92213019982245 1.8634856537076985 C 0.0 **** -0.24
32492 H 14.70040423698731 67.90282167774131 2.219584102829458 H 0.0 **** 0.06
32493 H 13.320664246307814 66.94463327347188 1.6296633479522598 H 0.0 **** 0.06
32494 H 14.57212916704276 66.17730280671731 2.6375614133485783 H 0.0 **** 0.06
32495 H 14.949491658275349 66.66270493176296 0.9670611206833541 H 0.0 **** 0.06
32496 C 106.32807257737213 105.57897833438065 19.762488853398025 C 0.0 **** -0.24
32497 H 106.92870444567237 104.83345041422244 19.240394767360243 H 0.0 **** 0.06
32498 H 105.34589277661956 105.16120022205119 19.986500135964405 H 0.0 **** 0.06
32499 H 106.21298187076951 106.45947539732353 19.130723281547745 H 0.0 **** 0.06
32500 H 106.82458942547211 105.8593389890369 20.690607680916827 H 0.0 **** 0.06
32501 C 21.313956013086937 13.072198398463783 4.336095105031461 C 0.0 **** -0.24
32502 H 20.400038466349997 13.063677072192377 3.743156021805987 H 0.0 **** 0.06
32503 H 22.16312457020433 12.821697768638344 3.699106901134826 H 0.0 **** 0.06
32504 H 21.233446499585966 12.339355017606522 5.139260423175585 H 0.0 **** 0.06
32505 H 21.460456371862904 14.063976294337621 4.763528073774694 H 0.0 **** 0.06
32506 C 8.464574766480796 88.64480352122237 37.814264636904795 C 0.0 **** -0.24
32507 H 9.16795354060956 87.8905865886849 38.167657963170285 H 0.0 **** 0.06
32508 H 7.934972775138069 88.26524558851315 36.93960911552273 H 0.0 **** 0.06
32509 H 9.007725907406284 89.55015353443355 37.54570581879642 H 0.0 **** 0.06
32510 H 7.748015033447208 88.871033833213 38.60430623991678 H 0.0 **** 0.06
32511 C 37.85337961676203 49.65173497754992 90.17540804190743 C 0.0 **** -0.24
32512 H 36.85315196472499 49.22117047391126 90.22645287930366 H 0.0 **** 0.06
32513 H 38.58913615181734 48.85130738331162 90.09669527243442 H 0.0 **** 0.06
32514 H 38.04432918877876 50.23454724783639 91.07683294353396 H 0.0 **** 0.06
32515 H 37.92554652101683 50.299511540606346 89.30160189555856 H 0.0 **** 0.06
32516 C 49.21362698319547 31.19574052188551 61.39978463436249 C 0.0 **** -0.24
32517 H 49.12672974299181 32.24427303076152 61.11388748037439 H 0.0 **** 0.06
32518 H 48.3731969842849 30.923122464004592 62.03767607749063 H 0.0 **** 0.06
32519 H 50.147215182185505 31.042633858372028 61.94086976418227 H 0.0 **** 0.06
32520 H 49.20706009831031 30.574325707285595 60.50388271705543 H 0.0 **** 0.06
32521 C 21.644396952380106 79.63286706515505 105.95084680888107 C 0.0 **** -0.24
32522 H 22.71412757413637 79.82499105275907 105.8740520637781 H 0.0 **** 0.06
32523 H 21.247535010847315 79.38384886011731 104.96669781702349 H 0.0 **** 0.06
32524 H 21.142455367406853 80.52325941322944 106.32978721310917 H 0.0 **** 0.06
32525 H 21.472643708340655 78.80075618892195 106.63439714957337 H 0.0 **** 0.06
32526 C 46.22998980860413 87.9595218761279 74.72605104766481 C 0.0 **** -0.24
32527 H 46.366918114903854 88.04361701490467 73.64830788750871 H 0.0 **** 0.06
32528 H 45.16848237653795 88.02744241386682 74.9643690794795 H 0.0 **** 0.06
32529 H 46.7668428288369 88.76754233578714 75.22378944602903 H 0.0 **** 0.06
32530 H 46.61946554115656 87.00081206544411 75.06816191939356 H 0.0 **** 0.06
32531 C 60.55781317284456 60.541967273228806 38.030233582494105 C 0.0 **** -0.24
32532 H 60.439887609221984 61.48703516287608 37.50028646860815 H 0.0 **** 0.06
32533 H 61.18038474256238 59.86953124442556 37.43883760681962 H 0.0 **** 0.06
32534 H 59.578499145438144 60.08841452759273 38.18600807561569 H 0.0 **** 0.06
32535 H 61.03202399961242 60.72297832111403 38.9949173683238 H 0.0 **** 0.06
32536 C 69.06943285369687 85.79656935197893 35.65804703940252 C 0.0 **** -0.24
32537 H 69.31544731587829 86.70321157104345 35.10477901890435 H 0.0 **** 0.06
32538 H 69.91053205990333 85.10358103659186 35.612187419477316 H 0.0 **** 0.06
32539 H 68.1896028403148 85.32922834590346 35.21575727005759 H 0.0 **** 0.06
32540 H 68.86401879751378 86.04998653868886 36.697904955006116 H 0.0 **** 0.06
32541 C 50.09380375659125 95.91793770171479 40.76136729497521 C 0.0 **** -0.24
32542 H 50.02267123147877 96.91583292456868 40.329578042862956 H 0.0 **** 0.06
32543 H 51.100360523591775 95.52801510372176 40.61136219170167 H 0.0 **** 0.06
32544 H 49.372703968067086 95.26004331787466 40.277972314353825 H 0.0 **** 0.06
32545 H 49.8794118321709 95.96910501333555 41.82993962446476 H 0.0 **** 0.06
32546 C 69.35130684275367 43.14406177008959 49.80526985341302 C 0.0 **** -0.24
32547 H 69.76504547013707 43.04647557390439 48.80143221556654 H 0.0 **** 0.06
32548 H 69.45647239756084 42.19723836588258 50.334859647370294 H 0.0 **** 0.06
32549 H 68.29655495366484 43.409821550251536 49.73999454258195 H 0.0 **** 0.06
32550 H 69.88972070913297 43.92452072414898 50.343724192511246 H 0.0 **** 0.06
32551 C 44.22011046632858 67.54151021247681 58.132353433333414 C 0.0 **** -0.24
32552 H 43.47432914278926 68.33634281096367 58.16514226574604 H 0.0 **** 0.06
32553 H 44.03136908020281 66.83309794731697 58.93958357682046 H 0.0 **** 0.06
32554 H 45.21466679613022 67.97160687038064 58.25100537659814 H 0.0 **** 0.06
32555 H 44.1593221167731 67.02614820763125 57.17399312976746 H 0.0 **** 0.06
32556 C 62.14771583638597 88.3977718431361 39.349267486291524 C 0.0 **** -0.24
32557 H 62.11782840629914 88.18993826354053 40.41908414100183 H 0.0 **** 0.06
32558 H 62.26075850194647 89.47051187097182 39.19090739063648 H 0.0 **** 0.06
32559 H 61.22046436377906 88.05764621174013 38.88849427263912 H 0.0 **** 0.06
32560 H 62.990493230560645 87.87251747236384 38.90032673383212 H 0.0 **** 0.06
32561 C 4.354644608899321 8.973242632893687 102.94568429990176 C 0.0 **** -0.24
32562 H 4.027573199309131 8.293239075569147 103.7316430244533 H 0.0 **** 0.06
32563 H 3.6816344514235197 8.892113743960692 102.0920853653704 H 0.0 **** 0.06
32564 H 5.366787142361773 8.712770328259126 102.63739654196023 H 0.0 **** 0.06
32565 H 4.3414972301278 9.99669699380334 103.32224383822705 H 0.0 **** 0.06
32566 C 56.51981517336378 68.17194041825294 19.591782702565183 C 0.0 **** -0.24
32567 H 55.6899579257049 68.4293997925476 18.934035560959217 H 0.0 **** 0.06
32568 H 57.23623005822708 67.55634032363506 19.04695338316668 H 0.0 **** 0.06
32569 H 56.14397352869764 67.61770872935244 20.451374445629256 H 0.0 **** 0.06
32570 H 57.009004246969596 69.08396577554379 19.93256043777822 H 0.0 **** 0.06
32571 C 46.73429740059032 41.97805473243267 26.42554739947099 C 0.0 **** -0.24
32572 H 45.672097827655165 41.80589856849062 26.5990928578177 H 0.0 **** 0.06
32573 H 47.12666726274934 42.6396821387855 27.198492301695975 H 0.0 **** 0.06
32574 H 46.872126805001976 42.43934133769858 25.446763200299163 H 0.0 **** 0.06
32575 H 47.266358707360205 41.026802577482044 26.455661290936693 H 0.0 **** 0.06
32576 C 58.25227286987939 62.77822180399545 66.00748862137993 C 0.0 **** -0.24
32577 H 58.34918094919732 63.58361771258342 66.7351011095253 H 0.0 **** 0.06
32578 H 58.81514165493877 61.90946695522564 66.35016119286979 H 0.0 **** 0.06
32579 H 58.644202098838264 63.1087927887321 65.04532281656421 H 0.0 **** 0.06
32580 H 57.20187546418322 62.510899064300304 65.89884479497991 H 0.0 **** 0.06
32581 C 3.142310357982339 80.76674836613181 101.96681580579036 C 0.0 **** -0.24
32582 H 2.1948430939752654 80.2668498757204 101.76498666874869 H 0.0 **** 0.06
32583 H 3.9064472251862696 80.021019469221 102.18855443028843 H 0.0 **** 0.06
32584 H 3.0264629286254205 81.43322257163548 102.8216697270704 H 0.0 **** 0.06
32585 H 3.4410731532694854 81.34501362987473 101.09225088361205 H 0.0 **** 0.06
32586 C 82.0121666750408 6.896429762212236 86.32243854888324 C 0.0 **** -0.24
32587 H 81.65988882552588 6.675867457822179 87.33045458448156 H 0.0 **** 0.06
32588 H 81.4223710778526 6.332139612374448 85.60039321379462 H 0.0 **** 0.06
32589 H 83.06116456996214 6.613837581875742 86.23565854689863 H 0.0 **** 0.06
32590 H 81.90581866102383 7.96353525221889 86.1256043267254 H 0.0 **** 0.06
32591 C 84.85591219668294 24.299762400771726 10.845309446397273 C 0.0 **** -0.24
32592 H 85.62613687212587 24.401911486821987 10.080375296837895 H 0.0 **** 0.06
32593 H 83.87786593898107 24.49380155204953 10.402876266182341 H 0.0 **** 0.06
32594 H 85.04166872371684 25.015787923783048 11.645967723816772 H 0.0 **** 0.06
32595 H 84.87756996643975 23.28782519451808 11.249837245299725 H 0.0 **** 0.06
32596 C 32.54959155551347 88.49753793149875 0.9408346962784897 C 0.0 **** -0.24
32597 H 31.684906293877702 88.58443482383274 1.5998727095383272 H 0.0 **** 0.06
32598 H 32.830643892418266 87.44783617550803 0.8488968337217413 H 0.0 **** 0.06
32599 H 33.38241647677319 89.06195427024454 1.3586151289739643 H 0.0 **** 0.06
32600 H 32.29666185042447 88.89482144813422 -0.04209412731421258 H 0.0 **** 0.06
32601 C 12.06315805912024 21.702982287807117 67.702952262222 C 0.0 **** -0.24
32602 H 11.67070695479076 22.308861055340003 68.5201828276702 H 0.0 **** 0.06
32603 H 11.251311070671562 21.131562553934373 67.25235189840097 H 0.0 **** 0.06
32604 H 12.81864119441137 21.01837225186597 68.08927733961823 H 0.0 **** 0.06
32605 H 12.511862264873002 22.352711132464606 66.95134220031511 H 0.0 **** 0.06
32606 C 69.1749508798155 102.46277434628811 3.7393944851837473 C 0.0 **** -0.24
32607 H 68.62891304782815 102.20993892667398 2.8306477466798086 H 0.0 **** 0.06
32608 H 68.73694642709111 101.93291672029761 4.585512515798277 H 0.0 **** 0.06
32609 H 69.11366890702121 103.53816385653617 3.91172182421061 H 0.0 **** 0.06
32610 H 70.21913086877967 102.1715838553045 3.6285029906508948 H 0.0 **** 0.06
32611 C 68.49137840304249 51.15873316072961 77.98295513155642 C 0.0 **** -0.24
32612 H 67.6932721031425 51.337897425305385 77.26307238354057 H 0.0 **** 0.06
32613 H 69.39326247275068 50.84614204473766 77.45490900580234 H 0.0 **** 0.06
32614 H 68.18714561249791 50.37500774628339 78.67628302139016 H 0.0 **** 0.06
32615 H 68.69355011365991 52.07538986009021 78.5362116379234 H 0.0 **** 0.06
32616 C 58.14158926186485 65.23760196329543 6.494034095902293 C 0.0 **** -0.24
32617 H 59.00589091729603 64.99254682651669 7.112062718440313 H 0.0 **** 0.06
32618 H 58.32561090985092 64.91450184222293 5.468586812880119 H 0.0 **** 0.06
32619 H 57.975682978147034 66.3145497320196 6.512014517830494 H 0.0 **** 0.06
32620 H 57.26129296825644 64.7267804758741 6.882850893033719 H 0.0 **** 0.06
32621 C 27.524218861976465 57.591572264093365 65.87581944816984 C 0.0 **** -0.24
32622 H 26.699954005238396 57.63218516362979 66.5876654505215 H 0.0 **** 0.06
32623 H 27.863859337804115 56.561011001432504 65.77049824009082 H 0.0 **** 0.06
32624 H 28.346428042835555 58.21089583324895 66.23653423944636 H 0.0 **** 0.06
32625 H 27.1871612870558 57.964534004199294 64.90909073717415 H 0.0 **** 0.06
32626 C 56.07587808938172 19.780017587329752 36.46524242086474 C 0.0 **** -0.24
32627 H 56.88752011236875 19.883833663333277 37.18662390134811 H 0.0 **** 0.06
32628 H 55.137369182981274 19.621107144695216 36.995672603926984 H 0.0 **** 0.06
32629 H 56.27604919196074 18.92865564282016 35.81489246557402 H 0.0 **** 0.06
32630 H 56.0058937327849 20.687661202938415 35.864535311342465 H 0.0 **** 0.06
32631 C 9.199431607742184 24.31336907038812 75.48733840514969 C 0.0 **** -0.24
32632 H 8.88188444407345 24.69179488774583 74.51581311071966 H 0.0 **** 0.06
32633 H 9.595037655472197 25.13420479411178 76.08552673421381 H 0.0 **** 0.06
32634 H 9.97462272545458 23.558638482686376 75.34814694823534 H 0.0 **** 0.06
32635 H 8.346807574618907 23.867298659407766 75.99937859419904 H 0.0 **** 0.06
32636 C 38.935135340185326 85.78169888745447 7.426617764112507 C 0.0 **** -0.24
32637 H 38.739773794458216 84.79817286026588 7.855359158318947 H 0.0 **** 0.06
32638 H 38.92272336539287 85.71118350420306 6.3381930727359475 H 0.0 **** 0.06
32639 H 39.912100687815354 86.13460885224384 7.756934239873914 H 0.0 **** 0.06
32640 H 38.16567416268512 86.4797433456157 7.75535338104649 H 0.0 **** 0.06
32641 C 38.009427031745986 71.42454127557257 57.7584924551129 C 0.0 **** -0.24
32642 H 38.75543065098777 72.03539585935422 58.26790293172979 H 0.0 **** 0.06
32643 H 38.347133689083385 70.38862563768754 57.72728806753844 H 0.0 **** 0.06
32644 H 37.87287469746191 71.79268631960628 56.74127594381531 H 0.0 **** 0.06
32645 H 37.06303737578319 71.48350564221691 58.29640094826715 H 0.0 **** 0.06
32646 C 23.65914893839526 65.07080888580498 38.681027264100635 C 0.0 **** -0.24
32647 H 22.946510143873276 64.26753520757612 38.49066416186756 H 0.0 **** 0.06
32648 H 24.58514146498067 64.86928264289088 38.142528685422974 H 0.0 **** 0.06
32649 H 23.86422858010682 65.12826496973238 39.74946200305729 H 0.0 **** 0.06
32650 H 23.238283204895886 66.01677544006174 38.34036465006494 H 0.0 **** 0.06
32651 C 67.19530157166568 71.8261879531758 61.032699335741285 C 0.0 **** -0.24
32652 H 66.6561269287274 70.95017306010374 61.39382443615294 H 0.0 **** 0.06
32653 H 68.24299933321761 71.75464941092275 61.32814549934638 H 0.0 **** 0.06
32654 H 66.75614470731806 72.72639439309751 61.462272735393015 H 0.0 **** 0.06
32655 H 67.12584450596178 71.87083431076016 59.94525132135832 H 0.0 **** 0.06
32656 C 10.633727297703347 33.17369385965938 17.05310082177236 C 0.0 **** -0.24
32657 H 10.89662721470748 33.66642917028017 16.117349130095903 H 0.0 **** 0.06
32658 H 9.934123077320779 33.798563429484346 17.608810900240556 H 0.0 **** 0.06
32659 H 11.535099876275448 33.01932135348147 17.647645512066774 H 0.0 **** 0.06
32660 H 10.170040872672404 32.210472015691664 16.838787231938397 H 0.0 **** 0.06
32661 C 104.36840907912865 87.63045457267012 77.09001783911043 C 0.0 **** -0.24
32662 H 103.8023830910085 87.59159460546778 76.15861285134673 H 0.0 **** 0.06
32663 H 104.9104337413786 86.69482232496821 77.22513719397432 H 0.0 **** 0.06
32664 H 103.68368014229014 87.7776669585327 77.92497142104338 H 0.0 **** 0.06
32665 H 105.07614893254821 88.45845811406159 77.05064602789571 H 0.0 **** 0.06
32666 C 62.70717973237079 11.585781203988063 1.552255829490889 C 0.0 **** -0.24
32667 H 62.22970614818617 12.335330387964575 0.9211071094311052 H 0.0 **** 0.06
32668 H 63.77189535413234 11.541477296464166 1.3200025598307832 H 0.0 **** 0.06
32669 H 62.25386597658856 10.611650642520203 1.3660918148512735 H 0.0 **** 0.06
32670 H 62.5745818914354 11.854187463921676 2.6000895831956967 H 0.0 **** 0.06
32671 C 72.8271515561531 64.25194932337092 74.74196399403928 C 0.0 **** -0.24
32672 H 71.88474383064127 63.78344683045822 74.45739972471034 H 0.0 **** 0.06
32673 H 72.63925448134606 65.27386535925933 75.07223969650966 H 0.0 **** 0.06
32674 H 73.50004225415714 64.26487706904732 73.88451330021422 H 0.0 **** 0.06
32675 H 73.28379236764553 63.68499666335185 75.55353505126442 H 0.0 **** 0.06
32676 C 91.43030000499225 33.89094392696441 2.5537290549937097 C 0.0 **** -0.24
32677 H 91.80675159448082 34.91453289070728 2.569273009570111 H 0.0 **** 0.06
32678 H 91.3536420720284 33.54812942342954 1.5216183487258945 H 0.0 **** 0.06
32679 H 90.44606431251833 33.859305901315935 3.0207406515158084 H 0.0 **** 0.06
32680 H 92.11461873243786 33.24432461351083 3.101999973138959 H 0.0 **** 0.06
32681 C 55.87991688442037 25.260424494424512 64.29274504916057 C 0.0 **** -0.24
32682 H 55.186157123805344 25.823522858408865 64.91572037741824 H 0.0 **** 0.06
32683 H 55.350543351591966 24.865886418053407 63.424218610595716 H 0.0 **** 0.06
32684 H 56.298229426484 24.435373154139825 64.86831394893065 H 0.0 **** 0.06
32685 H 56.684738227085234 25.917130352880037 63.9605014815497 H 0.0 **** 0.06
32686 C 92.7152165111653 40.63652885863159 57.00603187842745 C 0.0 **** -0.24
32687 H 92.87517663481842 40.97515823479786 55.98230407296239 H 0.0 **** 0.06
32688 H 92.80926134790788 41.48344851643 57.68664588559625 H 0.0 **** 0.06
32689 H 93.46014246472355 39.88163168739419 57.25899101090363 H 0.0 **** 0.06
32690 H 91.71785651249495 40.2070704431271 57.09513386236853 H 0.0 **** 0.06
32691 C 59.28613406275002 43.348774329676 41.76233320900264 C 0.0 **** -0.24
32692 H 58.262851627299284 43.72515995307278 41.774443729156594 H 0.0 **** 0.06
32693 H 59.845523797408674 43.84524859335039 40.96828962033207 H 0.0 **** 0.06
32694 H 59.275018135019366 42.27387199288789 41.583137536797416 H 0.0 **** 0.06
32695 H 59.758788121445576 43.552970701056594 42.72255799788689 H 0.0 **** 0.06
32696 C 73.69462570401801 10.289815031952855 45.877755345957894 C 0.0 **** -0.24
32697 H 72.97539744940514 10.198123733998926 45.062917814616355 H 0.0 **** 0.06
32698 H 74.09294425857878 9.305572634819981 46.12250195515145 H 0.0 **** 0.06
32699 H 73.199840989742 10.71137861675848 46.7532214947268 H 0.0 **** 0.06
32700 H 74.50879565697335 10.945831607468776 45.570388741877025 H 0.0 **** 0.06
32701 C 18.01949578923437 75.01272184484387 7.917772494083948 C 0.0 **** -0.24
32702 H 18.42819578323224 74.08854881974955 8.32758011551742 H 0.0 **** 0.06
32703 H 17.02581219529833 74.82271867904365 7.512383288862196 H 0.0 **** 0.06
32704 H 18.672120736384315 75.37857212375522 7.124966106309358 H 0.0 **** 0.06
32705 H 17.952427523055036 75.76147960210679 8.70827832258837 H 0.0 **** 0.06
32706 C 13.627197362268404 40.958320041425566 100.88414650445588 C 0.0 **** -0.24
32707 H 13.226951557413372 41.972922342464784 100.88164778433145 H 0.0 **** 0.06
32708 H 13.106358410641292 40.364602429488485 101.6347608190398 H 0.0 **** 0.06
32709 H 14.691054513023005 40.989123776621284 101.11921627107188 H 0.0 **** 0.06
32710 H 13.485172975437422 40.50936075545604 99.90195748834219 H 0.0 **** 0.06
32711 C 12.618040224576475 66.55046334156563 72.68362969503188 C 0.0 **** -0.24
32712 H 13.260832351087103 65.7993419602785 73.14309316141359 H 0.0 **** 0.06
32713 H 12.46881092768956 66.30622304708092 71.63179652824849 H 0.0 **** 0.06
32714 H 13.08732563033216 67.530492709241 72.76680018702972 H 0.0 **** 0.06
32715 H 11.65483369946159 66.5639016143293 73.19396225636547 H 0.0 **** 0.06
32716 C 40.17981417086173 88.55980887614504 97.98123167453915 C 0.0 **** -0.24
32717 H 39.42083167779711 88.4398864476284 98.7545181076826 H 0.0 **** 0.06
32718 H 40.551523429832486 89.58448860326695 97.9930806792261 H 0.0 **** 0.06
32719 H 39.742379831265794 88.34288355448638 97.00732035636744 H 0.0 **** 0.06
32720 H 41.0031301649943 87.8712928971816 98.17161872768858 H 0.0 **** 0.06
32721 C 89.12603081932144 8.919596741655852 22.928985079296893 C 0.0 **** -0.24
32722 H 89.84513389367842 8.103206978121392 22.85638848753173 H 0.0 **** 0.06
32723 H 89.65241685003406 9.872170084461914 22.86971050284842 H 0.0 **** 0.06
32724 H 88.59845249761929 8.854640629174469 23.88053829431395 H 0.0 **** 0.06
32725 H 88.41066391224862 8.84727134916696 22.11045353976847 H 0.0 **** 0.06
32726 C 54.5269415110015 33.222244873422596 1.22348303495248 C 0.0 **** -0.24
32727 H 54.265818396018176 33.35703797408463 2.2735484077032027 H 0.0 **** 0.06
32728 H 54.46389006353193 32.16387486984884 0.9669128829824842 H 0.0 **** 0.06
32729 H 55.54327942928264 33.57756384566392 1.0537350842172089 H 0.0 **** 0.06
32730 H 53.834766952868826 33.788601984919694 0.6012807688769044 H 0.0 **** 0.06
32731 C 13.771848304115139 7.660393082987298 80.825883181937 C 0.0 **** -0.24
32732 H 12.693322171687356 7.805547417771493 80.75982764982717 H 0.0 **** 0.06
32733 H 14.020556388721644 7.224567315938145 81.793100251753 H 0.0 **** 0.06
32734 H 14.273927774734119 8.622231934257456 80.71967605017392 H 0.0 **** 0.06
32735 H 14.096369819078916 6.990591004065379 80.02959198817166 H 0.0 **** 0.06
32736 C 100.68540906024586 19.96661086716722 65.71867889079716 C 0.0 **** -0.24
32737 H 100.99545316164743 20.817199374074505 65.11062329114931 H 0.0 **** 0.06
32738 H 99.60448882466893 19.992357405991527 65.85599698267431 H 0.0 **** 0.06
32739 H 101.17721335186461 20.01793195146348 66.69033233516492 H 0.0 **** 0.06
32740 H 100.96768241112824 19.040879817376748 65.21755069211399 H 0.0 **** 0.06
32741 C 68.73571996692112 79.0057121640589 49.67804789023327 C 0.0 **** -0.24
32742 H 68.59322207748568 79.72779466150405 50.48267200925591 H 0.0 **** 0.06
32743 H 68.95769901628705 79.53486285250371 48.75104595868575 H 0.0 **** 0.06
32744 H 67.82663687959342 78.41720168961152 49.55237732652469 H 0.0 **** 0.06
32745 H 69.56590022275861 78.34425900715695 49.926328343133974 H 0.0 **** 0.06
32746 C 37.60757216585728 39.859778081425276 50.11951308373488 C 0.0 **** -0.24
32747 H 38.12436277639665 39.21107021579646 49.412460565116525 H 0.0 **** 0.06
32748 H 37.20455605475351 39.25903783441604 50.93503125636779 H 0.0 **** 0.06
32749 H 36.793960259222104 40.37636205899872 49.61031629774068 H 0.0 **** 0.06
32750 H 38.30934117011691 40.59189416588021 50.519401848026924 H 0.0 **** 0.06
32751 C 6.80140331658302 44.401388453079164 100.67421998078976 C 0.0 **** -0.24
32752 H 6.500236943796864 44.32453613761288 101.7193205878434 H 0.0 **** 0.06
32753 H 6.1864947231841825 45.14890490833767 100.17340538434014 H 0.0 **** 0.06
32754 H 6.670071249093951 43.43635871565442 100.18660013052441 H 0.0 **** 0.06
32755 H 7.849651166029446 44.69655758398136 100.61970965889803 H 0.0 **** 0.06
32756 C 85.80143067530446 80.58999643119319 101.43166465190316 C 0.0 **** -0.24
32757 H 85.1583553567499 80.44702737613375 100.5624962258741 H 0.0 **** 0.06
32758 H 86.84538036020075 80.53532511155697 101.12402723556741 H 0.0 **** 0.06
32759 H 85.59716746637501 79.8109568918585 102.16650658638306 H 0.0 **** 0.06
32760 H 85.60285702057405 81.56727924913093 101.87274236489154 H 0.0 **** 0.06
32761 C 70.4946037132777 50.81206476829112 61.42640614878533 C 0.0 **** -0.24
32762 H 70.10148612097726 51.7402894248213 61.84069136190246 H 0.0 **** 0.06
32763 H 69.89122929719929 49.97363198162748 61.776282620268745 H 0.0 **** 0.06
32764 H 71.52696771290934 50.67782006253094 61.75207426095798 H 0.0 **** 0.06
32765 H 70.46024941657205 50.85630027526889 60.33820411171277 H 0.0 **** 0.06
32766 C 29.467268437730695 59.6430160787022 20.61442863344103 C 0.0 **** -0.24
32767 H 30.043479903132948 58.72403323644886 20.713031400883846 H 0.0 **** 0.06
32768 H 30.127226930386826 60.50135755347296 20.74588766056583 H 0.0 **** 0.06
32769 H 28.68624886054758 59.666222443864626 21.374371124152 H 0.0 **** 0.06
32770 H 29.012539493040208 59.681801008353176 19.624410937702162 H 0.0 **** 0.06
32771 C 23.218011535046344 46.241684058665214 92.05198379478779 C 0.0 **** -0.24
32772 H 22.566936021076515 46.98887799074356 91.59773096809423 H 0.0 **** 0.06
32773 H 23.97489008187415 45.931966998850214 91.32970197652591 H 0.0 **** 0.06
32774 H 22.624521533288544 45.37717302435311 92.35001736988636 H 0.0 **** 0.06
32775 H 23.704860740073343 46.668745100611375 92.92818319015609 H 0.0 **** 0.06
32776 C 38.19757078681399 14.26837715631742 5.122132221863751 C 0.0 **** -0.24
32777 H 37.90542797633201 15.276478166781974 4.828434030319016 H 0.0 **** 0.06
32778 H 39.01180060275157 13.92534513432998 4.483425271580373 H 0.0 **** 0.06
32779 H 37.344496763177126 13.597667198023423 5.014481774914117 H 0.0 **** 0.06
32780 H 38.526586879350674 14.273509571869116 6.161262038043901 H 0.0 **** 0.06
32781 C 2.7626053873148635 65.8975795030514 27.082614271011437 C 0.0 **** -0.24
32782 H 3.286215343488621 66.06771890399521 26.142832475845296 H 0.0 **** 0.06
32783 H 2.5260526119265876 64.8375856637464 27.180151937301403 H 0.0 **** 0.06
32784 H 1.839665579768564 66.47793829891752 27.094635839698654 H 0.0 **** 0.06
32785 H 3.3964799218534267 66.20660361922243 27.913700230756277 H 0.0 **** 0.06
32786 C 63.24409868234224 1.238923825717805 32.172630940582536 C 0.0 **** -0.24
32787 H 62.88109910919596 1.3603481046836379 31.15229661387471 H 0.0 **** 0.06
32788 H 62.44182599069538 1.470551813617277 32.873095574533096 H 0.0 **** 0.06
32789 H 64.08211512657932 1.9146945425638222 32.34198282981262 H 0.0 **** 0.06
32790 H 63.57121260081527 0.21009761707726682 32.32091713400976 H 0.0 **** 0.06
32791 C 45.213848065101104 73.85366359628858 18.932434560195077 C 0.0 **** -0.24
32792 H 44.16033552664379 73.59889037673281 19.04245996624354 H 0.0 **** 0.06
32793 H 45.34938274598068 74.9209223341328 19.10983207955951 H 0.0 **** 0.06
32794 H 45.542938526713954 73.6086226834692 17.922221136190785 H 0.0 **** 0.06
32795 H 45.80157094168749 73.28782987232148 19.655003384259487 H 0.0 **** 0.06
32796 C 35.55740036329218 58.86787955358767 42.24864892279723 C 0.0 **** -0.24
32797 H 36.37259187721587 59.38802632775332 41.74490109826618 H 0.0 **** 0.06
32798 H 34.61680032453268 59.095414958094295 41.74724698328967 H 0.0 **** 0.06
32799 H 35.504417107954936 59.19470451311523 43.287122285611645 H 0.0 **** 0.06
32800 H 35.73657655790843 57.79338041360211 42.21470510143402 H 0.0 **** 0.06
32801 C 54.85073991368978 69.34399995223572 96.08673905046822 C 0.0 **** -0.24
32802 H 55.63175878863149 70.05501411970715 96.3554695131449 H 0.0 **** 0.06
32803 H 54.61604822893304 68.71862054505607 96.9486770784913 H 0.0 **** 0.06
32804 H 55.19739444097149 68.71603376638939 95.2663478083769 H 0.0 **** 0.06
32805 H 53.95635954566785 69.88531317030177 95.77637713617207 H 0.0 **** 0.06
32806 C 70.80159552076316 59.21982158885964 74.37717338113333 C 0.0 **** -0.24
32807 H 69.85592472822628 59.75460960828294 74.28699440085516 H 0.0 **** 0.06
32808 H 70.83678609508507 58.41784653379947 73.6407697710861 H 0.0 **** 0.06
32809 H 70.88576185384244 58.7968406802029 75.3790196566579 H 0.0 **** 0.06
32810 H 71.62692419784378 59.91017159436752 74.20473752783076 H 0.0 **** 0.06
32811 C 94.27233086010826 15.850572631125651 47.65376483521164 C 0.0 **** -0.24
32812 H 93.66784720328987 16.04088730643827 46.767762311493 H 0.0 **** 0.06
32813 H 94.54774738659002 14.795755039542712 47.68693653113437 H 0.0 **** 0.06
32814 H 93.70033609438512 16.10476435055848 48.546045765363715 H 0.0 **** 0.06
32815 H 95.17453440714343 16.46101632256126 47.615138850764104 H 0.0 **** 0.06
32816 C 95.60763345066502 62.364788203269626 14.817896021134487 C 0.0 **** -0.24
32817 H 94.52417423221999 62.39930121392882 14.704897483914863 H 0.0 **** 0.06
32818 H 95.91044317466864 61.35859375916576 15.107230959720994 H 0.0 **** 0.06
32819 H 95.91569933788858 63.072830121341184 15.587358020022322 H 0.0 **** 0.06
32820 H 96.08039085558025 62.628685788995966 13.87114723143273 H 0.0 **** 0.06
32821 C 67.14384583381195 3.860647798829291 79.23127948534164 C 0.0 **** -0.24
32822 H 67.39810836142723 4.9131570643954205 79.35774898689996 H 0.0 **** 0.06
32823 H 66.8878567085608 3.430284871166009 80.20011542842218 H 0.0 **** 0.06
32824 H 67.99739642597797 3.3293451776820007 78.8113347551903 H 0.0 **** 0.06
32825 H 66.2914598209804 3.770816951347001 78.5578314813668 H 0.0 **** 0.06
32826 C 51.87984896619315 63.851240260330655 18.163996343971323 C 0.0 **** -0.24
32827 H 51.404019799247294 62.93965734754957 17.802788794955713 H 0.0 **** 0.06
32828 H 51.14052420737386 64.46750537357711 18.677254561092628 H 0.0 **** 0.06
32829 H 52.29085958214836 64.40471664017306 17.319805092174736 H 0.0 **** 0.06
32830 H 52.682058403740484 63.59363464189174 18.855159890566842 H 0.0 **** 0.06
32831 C 24.17524294500538 39.868055560780164 29.36193695028419 C 0.0 **** -0.24
32832 H 24.617796721467045 38.879638055298585 29.23597773442839 H 0.0 **** 0.06
32833 H 23.088285134518202 39.783606078865375 29.34853015753015 H 0.0 **** 0.06
32834 H 24.49947858270758 40.51704141240913 28.548339795810193 H 0.0 **** 0.06
32835 H 24.495234329572725 40.29137583690414 30.313613958091537 H 0.0 **** 0.06
32836 C 76.69039789553793 61.5578815655154 104.33973958982116 C 0.0 **** -0.24
32837 H 75.9730311595749 62.326510057177586 104.05057707938317 H 0.0 **** 0.06
32838 H 77.31547431373176 61.93039222743204 105.15134047020894 H 0.0 **** 0.06
32839 H 77.31737572631087 61.30643600164706 103.484580181669 H 0.0 **** 0.06
32840 H 76.1548928860407 60.66822316969126 104.67130713204637 H 0.0 **** 0.06
32841 C 81.9109506446068 24.932651600615145 44.96417956909809 C 0.0 **** -0.24
32842 H 81.52837017849603 24.133827952022003 44.329120785893195 H 0.0 **** 0.06
32843 H 82.89378692696003 25.24134393121338 44.607317386038034 H 0.0 **** 0.06
32844 H 81.99357187956134 24.573060286983477 45.9903664800064 H 0.0 **** 0.06
32845 H 81.22800252311195 25.781382114405375 44.93001705200999 H 0.0 **** 0.06
32846 C 89.90437330698077 85.27731932179864 100.33959044478249 C 0.0 **** -0.24
32847 H 89.86102026459528 84.54988804200988 99.52805299989866 H 0.0 **** 0.06
32848 H 90.89020318355878 85.24272154970086 100.80480246021048 H 0.0 **** 0.06
32849 H 89.14247799636505 85.03892921388214 101.08139862480569 H 0.0 **** 0.06
32850 H 89.72472191716204 86.27593133972829 99.94112949206182 H 0.0 **** 0.06
32851 C 15.792095058487888 38.221391102335645 64.12459122922593 C 0.0 **** -0.24
32852 H 16.05942980954714 39.146434509555625 64.6347632617771 H 0.0 **** 0.06
32853 H 16.579037764154663 37.9541053633787 63.41943010363843 H 0.0 **** 0.06
32854 H 14.853714191603899 38.361615226145204 63.586326112259655 H 0.0 **** 0.06
32855 H 15.673815689750214 37.42367023866906 64.8573409024213 H 0.0 **** 0.06
32856 C 101.2365330968449 14.523949348690621 38.882479828929846 C 0.0 **** -0.24
32857 H 101.97885773663113 13.764320059234876 39.1281914390467 H 0.0 **** 0.06
32858 H 101.6051018492197 15.137788163208768 38.059303789939605 H 0.0 **** 0.06
32859 H 101.05871589434705 15.153553466406379 39.7543539072836 H 0.0 **** 0.06
32860 H 100.30636955777761 14.039720727469899 38.587483090162536 H 0.0 **** 0.06
32861 C 92.91540435912037 98.95943271451269 106.5185092881336 C 0.0 **** -0.24
32862 H 93.57729027823385 98.1368809628019 106.2484068412821 H 0.0 **** 0.06
32863 H 93.16424545366911 99.3134923817017 107.51847905185234 H 0.0 **** 0.06
32864 H 91.88194031473793 98.61455539336285 106.50049892372974 H 0.0 **** 0.06
32865 H 93.03888000939772 99.7732528293921 105.80377975550694 H 0.0 **** 0.06
32866 C 17.476937030005047 55.15336764285328 1.2081417078505297 C 0.0 **** -0.24
32867 H 17.562951972087433 54.45793130700841 0.3724542664512285 H 0.0 **** 0.06
32868 H 18.070624361329095 54.789460958435996 2.046499607608723 H 0.0 **** 0.06
32869 H 16.43169793436209 55.23244094394073 1.5090659672789855 H 0.0 **** 0.06
32870 H 17.841835935742523 56.13424478926001 0.9030556038482302 H 0.0 **** 0.06
32871 C 62.12750100137214 37.19148762833129 16.971523912274122 C 0.0 **** -0.24
32872 H 62.110032587184634 36.157060348844425 16.624920573213686 H 0.0 **** 0.06
32873 H 61.95547802393844 37.21583734819558 18.04802005081632 H 0.0 **** 0.06
32874 H 61.34467077349136 37.75630859901531 16.465703001122066 H 0.0 **** 0.06
32875 H 63.097804474257444 37.632634082107415 16.747638679216465 H 0.0 **** 0.06
32876 C 102.0383195601863 32.3507264014263 104.76562784894426 C 0.0 **** -0.24
32877 H 102.9249557843407 32.96061795488888 104.59176233669855 H 0.0 **** 0.06
32878 H 101.40856104727087 32.36423599810412 103.8763076627903 H 0.0 **** 0.06
32879 H 101.48130954395317 32.7533874881066 105.61209558917503 H 0.0 **** 0.06
32880 H 102.33946992241252 31.32581518646471 104.9836259994207 H 0.0 **** 0.06
32881 C 65.65214848165095 29.200284466142747 66.79989840485067 C 0.0 **** -0.24
32882 H 65.45292814673172 28.700015474401873 65.8521057540139 H 0.0 **** 0.06
32883 H 65.95898479865322 28.461556485623355 67.54134309054709 H 0.0 **** 0.06
32884 H 64.74820308897688 29.705029140843763 67.14132374655529 H 0.0 **** 0.06
32885 H 66.44821029252877 29.93233980415743 66.66450167050394 H 0.0 **** 0.06
32886 C 79.02675599609438 9.0099700531091 60.823764482180195 C 0.0 **** -0.24
32887 H 79.36277314959443 9.263359191791091 59.81758647162429 H 0.0 **** 0.06
32888 H 78.0563918971371 9.470229973210747 61.00898330551425 H 0.0 **** 0.06
32889 H 79.74961297836518 9.3790046705907 61.550879266391036 H 0.0 **** 0.06
32890 H 78.9400445348655 7.927495447172063 60.91521685051437 H 0.0 **** 0.06
32891 C 48.20976177926889 70.73719917138646 56.5103678855514 C 0.0 **** -0.24
32892 H 48.32909177697528 70.55940607493824 55.44217051699016 H 0.0 **** 0.06
32893 H 48.71700928126024 69.94982366594704 57.06854843495148 H 0.0 **** 0.06
32894 H 47.14903542109181 70.73684706554306 56.76284404755012 H 0.0 **** 0.06
32895 H 48.64453847611965 71.7025517895361 56.76866854989791 H 0.0 **** 0.06
32896 C 96.41050599455788 79.28143574433423 48.90346009334462 C 0.0 **** -0.24
32897 H 96.83256639864487 79.68416711902145 47.982319389756356 H 0.0 **** 0.06
32898 H 95.67283575199563 79.98010810926337 49.300357216580494 H 0.0 **** 0.06
32899 H 97.20577990317697 79.13721904106856 49.635200954388665 H 0.0 **** 0.06
32900 H 95.93027542332948 78.32614758875287 48.69452281104401 H 0.0 **** 0.06
32901 C 49.46415027883802 95.17018158155096 7.1014741559786785 C 0.0 **** -0.24
32902 H 48.96046759080116 95.33560266284957 6.1485447932061845 H 0.0 **** 0.06
32903 H 49.48953078276293 94.10306387951141 7.319029398108867 H 0.0 **** 0.06
32904 H 48.923172785407246 95.69065699135892 7.89269629600156 H 0.0 **** 0.06
32905 H 50.48237157055195 95.55453962577178 7.044606014576885 H 0.0 **** 0.06
32906 C 70.77985994370101 21.845441099355003 50.273796574226594 C 0.0 **** -0.24
32907 H 70.55775254138948 21.986603648885296 51.33157450273018 H 0.0 **** 0.06
32908 H 69.89538854053717 22.086793033566686 49.682744655964385 H 0.0 **** 0.06
32909 H 71.06335718717222 20.808623648180994 50.09665671309963 H 0.0 **** 0.06
32910 H 71.60073349509688 22.50173450948068 49.98380639359161 H 0.0 **** 0.06
32911 C 30.915324008192044 104.85362933942909 70.02223965227373 C 0.0 **** -0.24
32912 H 31.28696892182549 103.82922632497531 70.02881267694318 H 0.0 **** 0.06
32913 H 29.844631640749412 104.85208526440519 70.22647279622672 H 0.0 **** 0.06
32914 H 31.098261299490247 105.30101623381526 69.04559663072928 H 0.0 **** 0.06
32915 H 31.430663361309016 105.4317519807143 70.78917854495951 H 0.0 **** 0.06
32916 C 96.49192256265847 62.11599316670657 40.581280952182794 C 0.0 **** -0.24
32917 H 96.82799217818754 61.16821501504694 40.16072596698831 H 0.0 **** 0.06
32918 H 96.98520268368252 62.28524508892937 41.538379281496674 H 0.0 **** 0.06
32919 H 95.41236013328528 62.085942460764585 40.729110680096795 H 0.0 **** 0.06
32920 H 96.74184143290938 62.92612576939092 39.89532870385369 H 0.0 **** 0.06
32921 C 56.74142736053914 24.8721521438149 98.60259654081968 C 0.0 **** -0.24
32922 H 56.34079418478474 24.815494802572914 99.61468236144734 H 0.0 **** 0.06
32923 H 56.301488589127935 24.081599416457323 97.99351687920533 H 0.0 **** 0.06
32924 H 57.823660636508215 24.748986173261926 98.63413944356441 H 0.0 **** 0.06
32925 H 56.49872924497104 25.842966238363857 98.16997968270363 H 0.0 **** 0.06
32926 C 77.77680464076434 105.66582136622283 18.921005498863607 C 0.0 **** -0.24
32927 H 78.80456932602391 105.31418562531915 18.83014423439394 H 0.0 **** 0.06
32928 H 77.62872936116145 106.10258040559096 19.90884758110262 H 0.0 **** 0.06
32929 H 77.09311241937883 104.82702543643246 18.788166997251054 H 0.0 **** 0.06
32930 H 77.58169113671102 106.41844934289567 18.15792522982045 H 0.0 **** 0.06
32931 C 7.6616569215991035 30.84034375111898 56.22378206935173 C 0.0 **** -0.24
32932 H 8.447432473070762 30.77427392130315 56.97691440145837 H 0.0 **** 0.06
32933 H 8.008156786531544 31.45442508331155 55.3910637602566 H 0.0 **** 0.06
32934 H 6.773556218066517 31.293647349413163 56.66430528444414 H 0.0 **** 0.06
32935 H 7.419932169519626 29.84119503197047 55.86229257248175 H 0.0 **** 0.06
32936 C 70.70537435843833 39.709338042229035 61.731878549993155 C 0.0 **** -0.24
32937 H 70.88292976426207 40.69922209745866 62.153595747640935 H 0.0 **** 0.06
32938 H 71.16464545299985 39.64752441538556 60.7452150554013 H 0.0 **** 0.06
32939 H 69.63293383089716 39.53863933928042 61.64547304153828 H 0.0 **** 0.06
32940 H 71.14265908355341 38.95351839445888 62.38517977522284 H 0.0 **** 0.06
32941 C 7.317716170032563 12.734629324051184 43.15893889146392 C 0.0 **** -0.24
32942 H 7.221777871413426 11.734076546051341 43.58284781604587 H 0.0 **** 0.06
32943 H 6.384584993480489 13.011827985258094 42.667695720287696 H 0.0 **** 0.06
32944 H 8.1286423104067 12.743557772483285 42.430716549253304 H 0.0 **** 0.06
32945 H 7.535774556038406 13.446866520417927 43.95494670557193 H 0.0 **** 0.06
32946 C 42.26308402017855 81.9879581980374 79.36271140071148 C 0.0 **** -0.24
32947 H 42.39565963327783 82.2571803970556 78.315626043495 H 0.0 **** 0.06
32948 H 43.06467220553799 82.42857889655276 79.95532128757034 H 0.0 **** 0.06
32949 H 42.28962668429949 80.90335001466792 79.46517729112287 H 0.0 **** 0.06
32950 H 41.301627909097135 82.362014635929 79.71568827265713 H 0.0 **** 0.06
32951 C 32.45552531071979 80.71110822569028 5.789256294887988 C 0.0 **** -0.24
32952 H 32.04097529632975 81.49053429507228 5.150846598123058 H 0.0 **** 0.06
32953 H 31.86135282041377 79.80263263699982 5.68695821350064 H 0.0 **** 0.06
32954 H 32.43508463287577 81.04264339587763 6.828189589749121 H 0.0 **** 0.06
32955 H 33.484749735967824 80.50749248518952 5.493203201495541 H 0.0 **** 0.06
32956 C 69.83813146671318 46.6249652221388 102.43923535353241 C 0.0 **** -0.24
32957 H 69.68409160188077 45.6941834779093 102.98536517590958 H 0.0 **** 0.06
32958 H 69.93400311195288 47.44929424094891 103.14502211009335 H 0.0 **** 0.06
32959 H 68.98767975515727 46.80543273870924 101.7820146493579 H 0.0 **** 0.06
32960 H 70.74748656365085 46.54931809532592 101.84286756733582 H 0.0 **** 0.06
32961 C 65.53137776494349 30.550212258056952 30.545654011466468 C 0.0 **** -0.24
32962 H 65.46241709241467 31.528939029196316 30.07208776876635 H 0.0 **** 0.06
32963 H 66.16485063282893 30.618715005563445 31.430030744829992 H 0.0 **** 0.06
32964 H 65.96444923085333 29.836874834611287 29.843207136131724 H 0.0 **** 0.06
32965 H 64.53549917012322 30.21572201284583 30.83469512631376 H 0.0 **** 0.06
32966 C 67.53981806675243 46.80121695625235 86.18012795125718 C 0.0 **** -0.24
32967 H 68.20430650008785 47.66418825177135 86.15183794322742 H 0.0 **** 0.06
32968 H 67.14412882967254 46.614792582086636 85.18155661954961 H 0.0 **** 0.06
32969 H 66.71618374349909 47.00044277330801 86.86637231282015 H 0.0 **** 0.06
32970 H 68.0930464287282 45.926844954917556 86.5214205565863 H 0.0 **** 0.06
32971 C 97.87850411474965 58.96003262406477 57.464598772259876 C 0.0 **** -0.24
32972 H 98.14208530436302 59.97643050806413 57.17386873026578 H 0.0 **** 0.06
32973 H 98.78767522037367 58.38069307727996 57.62699741878713 H 0.0 **** 0.06
32974 H 97.28930764007379 58.496962460683726 56.67266678353572 H 0.0 **** 0.06
32975 H 97.29463909132883 58.985102102311465 58.384734015757054 H 0.0 **** 0.06
32976 C 45.38404241714295 81.68051200962998 61.263704147787024 C 0.0 **** -0.24
32977 H 45.33298890264467 81.05328985448625 62.153507833140225 H 0.0 **** 0.06
32978 H 44.56955209275134 81.41773161949004 60.58759043454822 H 0.0 **** 0.06
32979 H 46.339203539814946 81.5226674005711 60.76180967239074 H 0.0 **** 0.06
32980 H 45.29347472551052 82.72806959367745 61.551794984843895 H 0.0 **** 0.06
32981 C 100.69053232355458 87.88857725099203 75.68232319243836 C 0.0 **** -0.24
32982 H 99.95357599943526 87.7859465246069 74.88574424407088 H 0.0 **** 0.06
32983 H 101.58898685850124 88.36379745935022 75.28760564253676 H 0.0 **** 0.06
32984 H 100.94280133026194 86.90185199001358 76.07257616444056 H 0.0 **** 0.06
32985 H 100.27657064388296 88.50051291038429 76.48371584390583 H 0.0 **** 0.06
32986 C 9.004651783944809 102.60491643278476 43.17816339553471 C 0.0 **** -0.24
32987 H 8.050845996495951 102.35145585797537 43.6419920397403 H 0.0 **** 0.06
32988 H 9.334046123909204 103.57995423302498 43.537030165724815 H 0.0 **** 0.06
32989 H 8.884867298075477 102.63616265164171 42.09608993648996 H 0.0 **** 0.06
32990 H 9.746995151172626 101.8505729474883 43.44041513445299 H 0.0 **** 0.06
32991 C 54.53401678382945 49.86324927666587 46.27478136600004 C 0.0 **** -0.24
32992 H 54.849930959926034 50.7170560738671 46.87474713446295 H 0.0 **** 0.06
32993 H 53.452398745517165 49.7481613594822 46.34855073626534 H 0.0 **** 0.06
32994 H 55.021962993558894 48.96108446760297 46.64356430481155 H 0.0 **** 0.06
32995 H 54.8131835190719 50.027682347399434 45.23400693789779 H 0.0 **** 0.06
32996 C 99.79564058680218 38.026605922195586 80.3522817292818 C 0.0 **** -0.24
32997 H 99.46683828271516 37.91446100664518 81.38599122547353 H 0.0 **** 0.06
32998 H 100.5700093306566 37.289837858024015 80.13665562855422 H 0.0 **** 0.06
32999 H 100.19634398566822 39.02864560553604 80.20445449020849 H 0.0 **** 0.06
33000 H 98.94951700308961 37.86988914857085 79.68306991551742 H 0.0 **** 0.06
33001 C 36.924084343760796 29.541157832235086 70.89564205397966 C 0.0 **** -0.24
33002 H 36.23671386776027 30.278739380815438 71.30913808381615 H 0.0 **** 0.06
33003 H 36.43017228402874 28.56978274043155 70.84945670044695 H 0.0 **** 0.06
33004 H 37.80672470595118 29.470847125676215 71.5319180452139 H 0.0 **** 0.06
33005 H 37.222900650858776 29.845764983919082 69.89336567621024 H 0.0 **** 0.06
33006 C 31.315827895355454 11.14936012395799 53.70770862798139 C 0.0 **** -0.24
33007 H 31.35871773365929 10.751447109565504 52.693210988344674 H 0.0 **** 0.06
33008 H 32.27119315744466 11.611772516808117 53.95701111433101 H 0.0 **** 0.06
33009 H 31.109494650572827 10.340199143457454 54.407554868826026 H 0.0 **** 0.06
33010 H 30.52323404201914 11.895672930049585 53.77064458400537 H 0.0 **** 0.06
33011 C 106.32530151091152 37.999218553715224 45.13865325327447 C 0.0 **** -0.24
33012 H 106.35765745477357 38.514496713052125 44.17861772039262 H 0.0 **** 0.06
33013 H 105.29526541228131 37.953415180137 45.49172035248387 H 0.0 **** 0.06
33014 H 106.93525192396999 38.54111104235744 45.86207137159448 H 0.0 **** 0.06
33015 H 106.71452784423235 36.987459272007186 45.01963316821974 H 0.0 **** 0.06
33016 C 17.729017673449405 106.63914595326378 7.780950193601825 C 0.0 **** -0.24
33017 H 17.028994645005824 106.67528724321811 6.946748039457233 H 0.0 **** 0.06
33018 H 17.281642933924758 106.08558239469224 8.60646272155195 H 0.0 **** 0.06
33019 H 17.95968231944829 107.65396915042363 8.106312215187842 H 0.0 **** 0.06
33020 H 18.646570523333082 106.14206320873085 7.463801509295749 H 0.0 **** 0.06
33021 C 18.038538253546022 103.31224254239704 18.67645502430255 C 0.0 **** -0.24
33022 H 19.0306117372065 103.64915077095502 18.976960851286677 H 0.0 **** 0.06
33023 H 17.287232347820122 104.00122500332293 19.064299554876516 H 0.0 **** 0.06
33024 H 17.857584245745258 102.31453200110806 19.07743017220565 H 0.0 **** 0.06
33025 H 17.977911828358657 103.28265339116223 17.588663861480743 H 0.0 **** 0.06
33026 C 105.37298309331544 28.16931981475045 95.78192485752464 C 0.0 **** -0.24
33027 H 105.04720581668352 29.1425293454962 96.14877778565562 H 0.0 **** 0.06
33028 H 104.72796841734737 27.858191729987425 94.95928328421755 H 0.0 **** 0.06
33029 H 105.31220603871844 27.438417497007947 96.58799472948277 H 0.0 **** 0.06
33030 H 106.40151661226218 28.23889787319831 95.43015600445307 H 0.0 **** 0.06
33031 C 11.326030159861087 30.388668725787 51.55587679425162 C 0.0 **** -0.24
33032 H 10.550233429880794 29.916897375996825 52.15888254204879 H 0.0 **** 0.06
33033 H 10.878704652032924 30.817824820927854 50.65926949622559 H 0.0 **** 0.06
33034 H 12.067562611440996 29.641499573225474 51.26937079887966 H 0.0 **** 0.06
33035 H 11.808453250442367 31.175395565394297 52.13426460649208 H 0.0 **** 0.06
33036 C 95.75215761227025 68.87220600426598 21.690805288705178 C 0.0 **** -0.24
33037 H 95.04026655454398 69.34416102537024 22.368767924931575 H 0.0 **** 0.06
33038 H 95.2716222110132 68.0327926319713 21.186789720525297 H 0.0 **** 0.06
33039 H 96.60972993856404 68.51292061072533 22.25862776522567 H 0.0 **** 0.06
33040 H 96.08483176043632 69.59874381449448 20.950133712601712 H 0.0 **** 0.06
33041 C 87.5321473155681 76.43984948212085 20.90838865321365 C 0.0 **** -0.24
33042 H 87.08490198988785 75.87332610979544 21.724110735299632 H 0.0 **** 0.06
33043 H 87.20823779119901 76.0212604278955 19.95498707082163 H 0.0 **** 0.06
33044 H 88.61877713942116 76.38343334886447 20.980170259553233 H 0.0 **** 0.06
33045 H 87.21780717339303 77.48117152405653 20.973468256498393 H 0.0 **** 0.06
33046 C 96.06421467357025 99.23679965154845 3.035210015203547 C 0.0 **** -0.24
33047 H 96.87080458353542 99.86290651580721 2.6539547043662006 H 0.0 **** 0.06
33048 H 95.79840642691073 98.49198136715098 2.285117084973865 H 0.0 **** 0.06
33049 H 95.19603150156925 99.85810545632707 3.2560941585974836 H 0.0 **** 0.06
33050 H 96.39345267067095 98.73545530682378 3.945419278051368 H 0.0 **** 0.06
33051 C 32.25872687702036 8.305068663489891 48.180169525675865 C 0.0 **** -0.24
33052 H 31.439749893649868 8.34761230029605 47.461764019235886 H 0.0 **** 0.06
33053 H 31.859372453005435 8.109290063871413 49.17542803618548 H 0.0 **** 0.06
33054 H 32.79071459321898 9.256103075915632 48.181984692975504 H 0.0 **** 0.06
33055 H 32.944354542875956 7.5054657431766 47.90039003463991 H 0.0 **** 0.06
33056 C 67.13200255678362 104.18400723823316 45.12501270104438 C 0.0 **** -0.24
33057 H 67.15402297264833 103.11344166813365 44.92178091394514 H 0.0 **** 0.06
33058 H 66.77150989182084 104.71373545648572 44.24242059448532 H 0.0 **** 0.06
33059 H 68.13691697328744 104.5277948385039 45.369844895197346 H 0.0 **** 0.06
33060 H 66.46642236382587 104.38101178069553 45.965499423089305 H 0.0 **** 0.06
33061 C 28.00095774568075 35.50512857389759 99.42230129446742 C 0.0 **** -0.24
33062 H 28.447739189242213 34.8626703065882 100.18189492339589 H 0.0 **** 0.06
33063 H 27.678547996643886 36.4402421970417 99.882484157315 H 0.0 **** 0.06
33064 H 27.141675102535714 35.00123184060544 98.9809056863409 H 0.0 **** 0.06
33065 H 28.737006761676298 35.716841682611005 98.64745352798876 H 0.0 **** 0.06
33066 C 91.28550765265132 59.032565058015706 16.51720679583761 C 0.0 **** -0.24
33067 H 90.6339998296565 58.322892873366726 16.005372110749192 H 0.0 **** 0.06
33068 H 91.93332066493346 58.49524445445189 17.21012280520081 H 0.0 **** 0.06
33069 H 90.6780494557804 59.75032607801964 17.068146308765918 H 0.0 **** 0.06
33070 H 91.8951066210318 59.559805299066824 15.783567565552573 H 0.0 **** 0.06
33071 C 64.36054674412632 12.860142523671545 71.85933099061157 C 0.0 **** -0.24
33072 H 65.34526610001718 12.718671337974722 72.30519018167024 H 0.0 **** 0.06
33073 H 63.76799892403402 11.95575927119447 71.9959973810063 H 0.0 **** 0.06
33074 H 64.47019535596762 13.065645134269204 70.79529410725047 H 0.0 **** 0.06
33075 H 63.860845751651766 13.699392323883973 72.34235724646499 H 0.0 **** 0.06
33076 C 53.634370550454435 2.35811728934344 4.300507407920492 C 0.0 **** -0.24
33077 H 53.42450070459387 1.8898496906536337 5.2621668129958294 H 0.0 **** 0.06
33078 H 53.81066090437821 3.4238653576259708 4.446652816294545 H 0.0 **** 0.06
33079 H 52.7816747965561 2.218177393301886 3.636014752107613 H 0.0 **** 0.06
33080 H 54.51830544402105 1.8992936925795902 3.8588914410677404 H 0.0 **** 0.06
33081 C 78.94994768086225 6.34384174157551 67.5020765552724 C 0.0 **** -0.24
33082 H 78.6824293221142 6.468896556998764 66.45266388851928 H 0.0 **** 0.06
33083 H 79.46006295090312 7.240800119644474 67.85652244902266 H 0.0 **** 0.06
33084 H 79.61161076119258 5.484254622170809 67.60835286511391 H 0.0 **** 0.06
33085 H 78.04757237509018 6.182567461446865 68.09111567321713 H 0.0 **** 0.06
33086 C 43.92810113001501 8.738103280837052 8.957503507167289 C 0.0 **** -0.24
33087 H 43.551540977492806 8.800189617328016 9.979186681862231 H 0.0 **** 0.06
33088 H 44.78629354188243 8.066671730996688 8.92748400394153 H 0.0 **** 0.06
33089 H 44.22925834677972 9.730271226532679 8.621065081987055 H 0.0 **** 0.06
33090 H 43.14399318061366 8.355297576737811 8.304780601103914 H 0.0 **** 0.06
33091 C 63.75852860822289 74.54434919914098 71.41050733116427 C 0.0 **** -0.24
33092 H 62.92668410399364 73.84895291063242 71.51738753320787 H 0.0 **** 0.06
33093 H 64.58225862930937 74.22707875740775 72.05063861918715 H 0.0 **** 0.06
33094 H 63.43572935785352 75.54427022987272 71.700676746936 H 0.0 **** 0.06
33095 H 64.08898524367521 74.55784781682507 70.37127108938593 H 0.0 **** 0.06
33096 C 37.626333324805245 87.93358286057808 67.60575135843226 C 0.0 **** -0.24
33097 H 37.066208726374384 87.55601792321745 68.46121021757114 H 0.0 **** 0.06
33098 H 37.01058715251628 87.86446119582952 66.70906214356091 H 0.0 **** 0.06
33099 H 38.53092759162266 87.34013235678847 67.47325073218286 H 0.0 **** 0.06
33100 H 37.89822204152347 88.97513919152702 67.7802640909299 H 0.0 **** 0.06
33101 C 75.05931280608672 42.34184665830843 75.82568457851337 C 0.0 **** -0.24
33102 H 74.01889646434762 42.66922192390996 75.81679340016777 H 0.0 **** 0.06
33103 H 75.0981623611143 41.259176609274576 75.9404187342258 H 0.0 **** 0.06
33104 H 75.58216200013675 42.81657438408293 76.65611460290214 H 0.0 **** 0.06
33105 H 75.53586331009564 42.62631299843338 74.88694165362898 H 0.0 **** 0.06
33106 C 28.944785778295127 57.13663561828151 94.40173751016074 C 0.0 **** -0.24
33107 H 27.855122796903622 57.151348562519885 94.38311452642493 H 0.0 **** 0.06
33108 H 29.32758428600937 58.051493427044036 93.94821656339343 H 0.0 **** 0.06
33109 H 29.305910397823652 56.27471990466257 93.84236292019686 H 0.0 **** 0.06
33110 H 29.290021641192155 57.071321653876204 95.43377143053041 H 0.0 **** 0.06
33111 C 100.01596307355187 66.44888751462278 90.69536304819377 C 0.0 **** -0.24
33112 H 100.30899444791525 66.92102662894862 89.7579981529019 H 0.0 **** 0.06
33113 H 100.8817588729001 66.38087086710001 91.35398514968887 H 0.0 **** 0.06
33114 H 99.63367271681082 65.44816939646395 90.49391320018265 H 0.0 **** 0.06
33115 H 99.23994631876876 67.04421675512248 91.17591041660233 H 0.0 **** 0.06
33116 C 84.2253139112666 45.136228819124966 61.48907568794232 C 0.0 **** -0.24
33117 H 84.04831584753839 46.01809861425574 60.8721469017846 H 0.0 **** 0.06
33118 H 84.52168067343419 45.44767951837673 62.490862055227936 H 0.0 **** 0.06
33119 H 85.01839940572754 44.53477810046197 61.04480309266759 H 0.0 **** 0.06
33120 H 83.31068856501281 44.54532293936407 61.54789297808598 H 0.0 **** 0.06
33121 C 76.20197901815746 72.36975658538915 68.45392494124184 C 0.0 **** -0.24
33122 H 75.97580385822963 71.90919707339339 69.41489287879028 H 0.0 **** 0.06
33123 H 77.14541216652239 72.91090678436183 68.52383237936994 H 0.0 **** 0.06
33124 H 75.40384037061955 73.06192250180504 68.1865063011881 H 0.0 **** 0.06
33125 H 76.28221721429523 71.59542904261988 67.69081393522617 H 0.0 **** 0.06
33126 C 103.20146638361695 68.11271737247937 85.2528025829532 C 0.0 **** -0.24
33127 H 103.346018878221 68.68002041077725 86.1724631533738 H 0.0 **** 0.06
33128 H 102.75935969059765 68.75768366055442 84.49392918714068 H 0.0 **** 0.06
33129 H 102.53619670590274 67.27098191086294 85.44792927335257 H 0.0 **** 0.06
33130 H 104.16408479292528 67.74071239953886 84.9003229964394 H 0.0 **** 0.06
33131 C 78.90978347897914 96.5639961490499 1.9648600684907933 C 0.0 **** -0.24
33132 H 79.35616916298721 95.72365802771532 2.498110898471893 H 0.0 **** 0.06
33133 H 78.95994965825867 97.45663648011119 2.58750703981967 H 0.0 **** 0.06
33134 H 77.86810533008037 96.33667958389248 1.7375397303018474 H 0.0 **** 0.06
33135 H 79.45527492732754 96.73608450240773 1.0374252464005025 H 0.0 **** 0.06
33136 C 9.968995425954574 93.83408632613566 14.441080568198714 C 0.0 **** -0.24
33137 H 10.04384400403569 94.90539206195712 14.629628844205158 H 0.0 **** 0.06
33138 H 10.590158567387675 93.29543641224302 15.157408269586114 H 0.0 **** 0.06
33139 H 10.310862423180936 93.6193148282104 13.428626191266886 H 0.0 **** 0.06
33140 H 8.931415959870321 93.51876740899837 14.549812009382904 H 0.0 **** 0.06
33141 C 12.731629423088322 97.0528932955093 10.756749639472485 C 0.0 **** -0.24
33142 H 12.392278264258238 96.96701886414314 11.789502333382638 H 0.0 **** 0.06
33143 H 13.558967529925965 96.36350060551894 10.58791513385908 H 0.0 **** 0.06
33144 H 13.06331740326462 98.07333779496435 10.567649751456589 H 0.0 **** 0.06
33145 H 11.910117455895573 96.80685870737102 10.08330638643256 H 0.0 **** 0.06
33146 C 42.47830637489409 46.76357051825005 11.259292125305592 C 0.0 **** -0.24
33147 H 42.28589311420609 45.86019489481822 10.680015547511971 H 0.0 **** 0.06
33148 H 43.052809328937144 46.508631667343025 12.149861183853545 H 0.0 **** 0.06
33149 H 41.53120942138648 47.214666345355226 11.554093057764874 H 0.0 **** 0.06
33150 H 43.04418188126539 47.47038817753423 10.65117742848787 H 0.0 **** 0.06
33151 C 105.54032398909384 89.9987717841524 16.108120838437003 C 0.0 **** -0.24
33152 H 106.1652275913819 90.84716387042852 15.830079404417063 H 0.0 **** 0.06
33153 H 105.21688594009133 89.47599117269407 15.20730064148529 H 0.0 **** 0.06
33154 H 104.66798682836863 90.35406228325226 16.655464593345812 H 0.0 **** 0.06
33155 H 106.11290283756432 89.31742183055916 16.73794020969825 H 0.0 **** 0.06
33156 C 26.878730444806585 67.33216517882153 85.46267289894672 C 0.0 **** -0.24
33157 H 27.967392715168693 67.38556513265848 85.43637380910192 H 0.0 **** 0.06
33158 H 26.54109613036062 66.4936342754647 84.8537544377754 H 0.0 **** 0.06
33159 H 26.460119664867978 68.2590329314773 85.06871102672217 H 0.0 **** 0.06
33160 H 26.54627829679458 67.19242124561976 86.49083867697158 H 0.0 **** 0.06
33161 C 60.85183400053451 64.69654425889644 44.313976072864705 C 0.0 **** -0.24
33162 H 61.4973516049148 64.1459409767574 44.99985350789876 H 0.0 **** 0.06
33163 H 60.35209322254979 65.50110472991342 44.85428094173756 H 0.0 **** 0.06
33164 H 60.10629578774982 64.02020638089846 43.89556889610441 H 0.0 **** 0.06
33165 H 61.453733243591756 65.11794318968563 43.508538941863605 H 0.0 **** 0.06
33166 C 31.93075034172915 4.869698277843753 98.19398593309351 C 0.0 **** -0.24
33167 H 32.257931645244696 5.326062288224421 97.25993187858671 H 0.0 **** 0.06
33168 H 32.36124109472267 5.415672310997508 99.03349577690378 H 0.0 **** 0.06
33169 H 32.262730106550066 3.831714491853006 98.22646407085357 H 0.0 **** 0.06
33170 H 30.843676950324408 4.906366058948578 98.25490852426168 H 0.0 **** 0.06
33171 C 16.663307984240685 76.52027157241952 42.45326980015295 C 0.0 **** -0.24
33172 H 17.46203504823212 77.24446363163045 42.292640875812424 H 0.0 **** 0.06
33173 H 17.018668859023386 75.72658787228212 43.10987737349279 H 0.0 **** 0.06
33174 H 16.361994962867115 76.09407347799736 41.49610765226535 H 0.0 **** 0.06
33175 H 15.809252999438602 77.01774763365118 42.9133712899951 H 0.0 **** 0.06
33176 C 54.857517246689234 91.9127883432651 24.49839596089751 C 0.0 **** -0.24
33177 H 53.9157724195422 92.39903195529428 24.242801433297785 H 0.0 **** 0.06
33178 H 54.9044269649066 90.93745510617691 24.01536780242543 H 0.0 **** 0.06
33179 H 54.91909157704531 91.78689746551743 25.57908915047625 H 0.0 **** 0.06
33180 H 55.68888860334648 92.52929961072277 24.156030295241976 H 0.0 **** 0.06
33181 C 45.328379963174655 67.83685375794425 0.33955046812802436 C 0.0 **** -0.24
33182 H 45.033128228885005 68.39901081669458 1.2252448516874779 H 0.0 **** 0.06
33183 H 45.84596603154921 66.9261697735437 0.6430765921373904 H 0.0 **** 0.06
33184 H 45.99250898533978 68.4458524049389 -0.2734046499693932 H 0.0 **** 0.06
33185 H 44.44040196341774 67.57555141915097 -0.23684168034830577 H 0.0 **** 0.06
33186 C 89.08175275489458 64.20543361353597 22.969510145428835 C 0.0 **** -0.24
33187 H 88.61249444032359 64.1398304406755 21.987467069677596 H 0.0 **** 0.06
33188 H 88.31350029062355 64.34446405518179 23.72975705777407 H 0.0 **** 0.06
33189 H 89.768138664524 65.05213872030666 22.98661461468267 H 0.0 **** 0.06
33190 H 89.63262396585225 63.287451443135055 23.170553126911496 H 0.0 **** 0.06
33191 C 92.89261083525814 18.878207811927155 55.83537978860693 C 0.0 **** -0.24
33192 H 92.78505088909286 18.039488485069 55.14626619954839 H 0.0 **** 0.06
33193 H 93.59948399336419 18.612424018145532 56.62176967219125 H 0.0 **** 0.06
33194 H 91.92465789860032 19.110541363067 56.2785049429865 H 0.0 **** 0.06
33195 H 93.26259068691454 19.74833042470533 55.2932421247387 H 0.0 **** 0.06
33196 C 17.457602220212664 77.3911786697011 36.82717948626319 C 0.0 **** -0.24
33197 H 17.698620953009495 77.69343709206197 37.845978039219574 H 0.0 **** 0.06
33198 H 17.883315520715513 76.40632721676485 36.63116781072716 H 0.0 **** 0.06
33199 H 17.874449660341455 78.11367146158938 36.12604109045927 H 0.0 **** 0.06
33200 H 16.375355255646255 77.34951398061725 36.70755828472787 H 0.0 **** 0.06
33201 C 81.07853813346074 59.985169384519025 13.53181498803474 C 0.0 **** -0.24
33202 H 81.52317480609716 60.9776979416998 13.605632379065469 H 0.0 **** 0.06
33203 H 80.46101733570936 59.79789951202659 14.410779610137809 H 0.0 **** 0.06
33204 H 81.86872364328309 59.235725316562565 13.477260434495463 H 0.0 **** 0.06
33205 H 80.46227405554097 59.92845454489148 12.635352131400339 H 0.0 **** 0.06
33206 C 73.57405537129883 60.62070052608061 101.8559955069769 C 0.0 **** -0.24
33207 H 73.34043307093633 59.59749600667507 102.1504931242233 H 0.0 **** 0.06
33208 H 73.64750052373421 61.24691351253654 102.74483170548204 H 0.0 **** 0.06
33209 H 72.7839524173994 61.00082188303492 101.20752512431018 H 0.0 **** 0.06
33210 H 74.52348078593302 60.636947833963006 101.31976032928684 H 0.0 **** 0.06
33211 C 24.225564211330237 97.4688950364542 85.08866357747098 C 0.0 **** -0.24
33212 H 24.254056922524484 97.89547063131718 86.09165069847546 H 0.0 **** 0.06
33213 H 25.002858983650754 96.70996917804857 84.99533019209264 H 0.0 **** 0.06
33214 H 24.395735971681688 98.25672188887378 84.35393968930259 H 0.0 **** 0.06
33215 H 23.250114083691017 97.01383966909023 84.91448434253113 H 0.0 **** 0.06
33216 C 99.49116811662553 87.69909688617258 22.186238798984277 C 0.0 **** -0.24
33217 H 99.71121577319563 86.89142725638462 22.884062191463727 H 0.0 **** 0.06
33218 H 98.41467649047402 87.87410912328208 22.160426083020553 H 0.0 **** 0.06
33219 H 99.83814132688711 87.42235763906857 21.1902078097591 H 0.0 **** 0.06
33220 H 99.99925757840647 88.60737106914426 22.50934681129965 H 0.0 **** 0.06
33221 C 65.25244440077854 45.48453649594484 31.21996416381532 C 0.0 **** -0.24
33222 H 65.36135102459768 44.99581316021329 32.188200994280464 H 0.0 **** 0.06
33223 H 64.56482025442479 44.91017422787422 30.599813626488782 H 0.0 **** 0.06
33224 H 66.22397283039717 45.541735778555335 30.730693904013606 H 0.0 **** 0.06
33225 H 64.85808597047642 46.49025053186375 31.364076610665478 H 0.0 **** 0.06
33226 C 72.41877447944722 13.730290828523021 17.910392043668423 C 0.0 **** -0.24
33227 H 72.17018141984946 14.058910403925701 16.900987070627878 H 0.0 **** 0.06
33228 H 73.30933841309843 13.102050204439728 17.877630165632354 H 0.0 **** 0.06
33229 H 71.58581802531424 13.160472638884883 18.322067253229136 H 0.0 **** 0.06
33230 H 72.6105784476936 14.60051590730594 18.53829272706855 H 0.0 **** 0.06
33231 C 89.76832850593706 10.620963639329233 81.2345911761411 C 0.0 **** -0.24
33232 H 90.64839503343626 10.28120190311219 80.68749280209124 H 0.0 **** 0.06
33233 H 90.01176425347302 11.531365650047576 81.78288576064168 H 0.0 **** 0.06
33234 H 89.45618325750121 9.847238255452282 81.93540644510355 H 0.0 **** 0.06
33235 H 88.96057403840848 10.823916936065359 80.53251047105792 H 0.0 **** 0.06
33236 C 34.203750092828926 22.80748350647029 19.63834977413572 C 0.0 **** -0.24
33237 H 33.231598739165975 23.289131098961604 19.526733848782754 H 0.0 **** 0.06
33238 H 34.747380372785074 22.864143945376952 18.69551553566987 H 0.0 **** 0.06
33239 H 34.06062776290264 21.7620463767191 19.913959956602696 H 0.0 **** 0.06
33240 H 34.77271794832549 23.31444171097597 20.41809120201654 H 0.0 **** 0.06
33241 C 3.876857942707886 85.21605226039398 77.26731235613363 C 0.0 **** -0.24
33242 H 3.1703364287114226 85.38965219958857 76.45619332776965 H 0.0 **** 0.06
33243 H 3.6643804455556506 85.90263637708534 78.08656582948572 H 0.0 **** 0.06
33244 H 4.892004504300417 85.3819456151384 76.90703531184062 H 0.0 **** 0.06
33245 H 3.779364746175034 84.18793151501474 77.61957452130082 H 0.0 **** 0.06
33246 C 28.371478202880326 85.77255155253522 52.355594226197525 C 0.0 **** -0.24
33247 H 27.452454526508575 85.56313039652576 51.808052468542996 H 0.0 **** 0.06
33248 H 28.161500885038066 85.78511914314493 53.425968167369774 H 0.0 **** 0.06
33249 H 28.76257041386404 86.74394033334124 52.05079349051175 H 0.0 **** 0.06
33250 H 29.107991132520482 84.99987910810222 52.138325637031244 H 0.0 **** 0.06
33251 C 30.034133499785497 87.01993781109147 102.00686669831398 C 0.0 **** -0.24
33252 H 29.57136850332077 86.70557856643299 101.07189959400475 H 0.0 **** 0.06
33253 H 31.11869283328309 87.01517212595044 101.8953764469448 H 0.0 **** 0.06
33254 H 29.746252639495452 86.3339262120671 102.80315834019231 H 0.0 **** 0.06
33255 H 29.699753467516075 88.02738306212055 102.25635980226642 H 0.0 **** 0.06
33256 C 83.24461500524373 33.9207336237655 27.331228288339744 C 0.0 **** -0.24
33257 H 82.24466842846061 33.53781954659331 27.125224891405438 H 0.0 **** 0.06
33258 H 83.85727502374075 33.124328149446285 27.753642453532365 H 0.0 **** 0.06
33259 H 83.17779106978097 34.74361542252308 28.042325873332672 H 0.0 **** 0.06
33260 H 83.69651683216918 34.275514703946385 26.40489366476291 H 0.0 **** 0.06
33261 C 48.59471220826694 31.54767239935336 3.430268002611129 C 0.0 **** -0.24
33262 H 49.09499096067751 32.25525835870258 4.091118188219198 H 0.0 **** 0.06
33263 H 47.81229248177863 32.06212479732213 2.871768370076097 H 0.0 **** 0.06
33264 H 48.151764002811944 30.747695646590245 4.0244218879178675 H 0.0 **** 0.06
33265 H 49.32070511558837 31.12553206021005 2.7358074104071335 H 0.0 **** 0.06
33266 C 65.68297900938819 78.15568862491537 54.45604596669472 C 0.0 **** -0.24
33267 H 66.07220042230603 77.13869825630148 54.41230846003975 H 0.0 **** 0.06
33268 H 64.98071720738713 78.31230125863054 53.637512807349424 H 0.0 **** 0.06
33269 H 66.50726671795314 78.86355342133331 54.36781377178471 H 0.0 **** 0.06
33270 H 65.17322871746458 78.30859655644828 55.40732537581425 H 0.0 **** 0.06
33271 C 49.10420187344742 76.71674524408947 69.19842840698112 C 0.0 **** -0.24
33272 H 48.4848527089748 75.82179524717986 69.13789059261492 H 0.0 **** 0.06
33273 H 49.776849022628845 76.63507089515221 70.05358332111433 H 0.0 **** 0.06
33274 H 48.46588462095233 77.59237678632952 69.32015447587173 H 0.0 **** 0.06
33275 H 49.688968702507154 76.81711040865127 68.2842165698695 H 0.0 **** 0.06
33276 C 14.295261850161225 30.656751167534907 60.30657441422969 C 0.0 **** -0.24
33277 H 13.206072466767125 30.614964249261135 60.320287744952594 H 0.0 **** 0.06
33278 H 14.650930212581201 30.531310644660522 59.28437122801921 H 0.0 **** 0.06
33279 H 14.697116596421154 29.859221398931965 60.932344168711694 H 0.0 **** 0.06
33280 H 14.62725161779197 31.62165014523481 60.690990213417564 H 0.0 **** 0.06
33281 C 62.65682568260593 22.93277119421792 10.058451127868963 C 0.0 **** -0.24
33282 H 63.52802312585999 22.309594972836095 10.254942908324537 H 0.0 **** 0.06
33283 H 61.7497969524573 22.342308724796624 10.193727634574756 H 0.0 **** 0.06
33284 H 62.69836811209018 23.304930829496527 9.034668362076133 H 0.0 **** 0.06
33285 H 62.64886572097839 23.775213022793906 10.750338495230778 H 0.0 **** 0.06
33286 C 5.63227420156935 72.12230524863486 94.1699431689907 C 0.0 **** -0.24
33287 H 5.275524290579044 71.7925472508644 93.19387303842149 H 0.0 **** 0.06
33288 H 4.780851687506534 72.294878518975 94.82799701126828 H 0.0 **** 0.06
33289 H 6.197046527454416 73.04774072201482 94.05558352127719 H 0.0 **** 0.06
33290 H 6.275217107242291 71.35500301442966 94.60061866864851 H 0.0 **** 0.06
33291 C 36.11049530604553 38.65120110232359 24.762410910435776 C 0.0 **** -0.24
33292 H 37.0788724506505 38.602210632629934 24.264590318957403 H 0.0 **** 0.06
33293 H 36.258077849588794 38.65023122971982 25.843114030192027 H 0.0 **** 0.06
33294 H 35.511511352430325 37.78634391394262 24.477046269249172 H 0.0 **** 0.06
33295 H 35.59526698707694 39.56473267796942 24.466030184189833 H 0.0 **** 0.06
33296 C 94.9314687559652 11.850370275409546 100.21434907995189 C 0.0 **** -0.24
33297 H 94.96637908106884 10.8340741484065 100.60527503626906 H 0.0 **** 0.06
33298 H 94.10122107537777 11.942192579141818 99.51376276698039 H 0.0 **** 0.06
33299 H 95.86763178193854 12.073456969097435 99.7012166542467 H 0.0 **** 0.06
33300 H 94.7934218004796 12.551426891998574 101.03755401819467 H 0.0 **** 0.06
33301 C 37.50903290422397 24.77821650325353 63.6502857247811 C 0.0 **** -0.24
33302 H 37.87918656399734 24.83088928799961 62.62706752150143 H 0.0 **** 0.06
33303 H 36.48238437174271 24.410195467840197 63.646533650886965 H 0.0 **** 0.06
33304 H 37.53722501051119 25.770464845044643 64.09899172599103 H 0.0 **** 0.06
33305 H 38.13538054572538 24.099046717737792 64.22838755583047 H 0.0 **** 0.06
33306 C 82.57463618624652 13.506622598783139 95.1704081821212 C 0.0 **** -0.24
33307 H 82.32418980257685 13.432774526306048 96.22838112594933 H 0.0 **** 0.06
33308 H 82.73243593324949 12.50735419981595 94.7639224627994 H 0.0 **** 0.06
33309 H 83.48485927991469 14.09460473356448 95.05200360901613 H 0.0 **** 0.06
33310 H 81.75722666682458 13.991796753699006 94.63634034424048 H 0.0 **** 0.06
33311 C 22.286183372932452 78.34636831674152 69.24701588499727 C 0.0 **** -0.24
33312 H 23.24314439832178 78.05413172315451 69.6791525162371 H 0.0 **** 0.06
33313 H 22.075266247607118 77.72487170326323 68.3763726380843 H 0.0 **** 0.06
33314 H 22.329326485975802 79.39302599743553 68.94450784608351 H 0.0 **** 0.06
33315 H 21.497406362611226 78.21533406632281 69.98752148347278 H 0.0 **** 0.06
33316 C 4.407475298097905 47.58955836038808 35.5514354240715 C 0.0 **** -0.24
33317 H 5.222014790036251 47.831350710758954 34.86850527156897 H 0.0 **** 0.06
33318 H 4.646570309162058 46.67404762304437 36.092824736656375 H 0.0 **** 0.06
33319 H 3.488306672720511 47.4462274814137 34.98293034228606 H 0.0 **** 0.06
33320 H 4.273306563121668 48.406317281719794 36.26012949580241 H 0.0 **** 0.06
33321 C 18.02508902416369 29.38391322973206 36.71804828074791 C 0.0 **** -0.24
33322 H 18.992435617871323 29.816856501449593 36.97138079931603 H 0.0 **** 0.06
33323 H 17.533960407556435 30.006361887190167 35.968821249070984 H 0.0 **** 0.06
33324 H 17.403937885866043 29.333267655166082 37.61154922288008 H 0.0 **** 0.06
33325 H 18.169957240399953 28.380334021021554 36.317866211806255 H 0.0 **** 0.06
33326 C 11.998525610734687 66.25229017847693 26.75968289547879 C 0.0 **** -0.24
33327 H 11.981976308896408 65.19503435425815 27.02602288758368 H 0.0 **** 0.06
33328 H 12.289613202190239 66.84102628923694 27.629532599536304 H 0.0 **** 0.06
33329 H 11.005746761885721 66.557499006834 26.428526662607027 H 0.0 **** 0.06
33330 H 12.71503383301247 66.41244170121797 25.954515131119138 H 0.0 **** 0.06
33331 C 23.972630877313236 81.41676557336066 87.12379764553094 C 0.0 **** -0.24
33332 H 22.980809380517286 81.6008532705739 87.5356829525467 H 0.0 **** 0.06
33333 H 24.344544852928465 82.32786753132282 86.65361684157494 H 0.0 **** 0.06
33334 H 23.91648349868396 80.62178538715273 86.38088605264531 H 0.0 **** 0.06
33335 H 24.64882721321979 81.11899616481651 87.92484232461146 H 0.0 **** 0.06
33336 C 52.08163901832748 16.267516673479605 41.8122739255096 C 0.0 **** -0.24
33337 H 52.889591710111574 15.655680265327078 41.40947195974235 H 0.0 **** 0.06
33338 H 51.12667906928283 15.773438036184132 41.62881663461866 H 0.0 **** 0.06
33339 H 52.086312845462345 17.24227257466751 41.32451394897936 H 0.0 **** 0.06
33340 H 52.22358366188871 16.39645708886235 42.88533068092448 H 0.0 **** 0.06
33341 C 102.22700232061274 47.86574796136699 23.550243812605174 C 0.0 **** -0.24
33342 H 102.62041295605218 47.96926350080929 22.539106184807622 H 0.0 **** 0.06
33343 H 102.26762093390926 46.81980705529247 23.851359029930904 H 0.0 **** 0.06
33344 H 101.19297088227984 48.21190706345527 23.57450568494528 H 0.0 **** 0.06
33345 H 102.82619019683801 48.46629087237534 24.23578511647065 H 0.0 **** 0.06
33346 C 82.66996073442147 58.63074862540134 6.3356745098806755 C 0.0 **** -0.24
33347 H 82.62126282637911 58.66217193914497 7.424139850157303 H 0.0 **** 0.06
33348 H 83.68720066137067 58.855560830618174 6.011794581535753 H 0.0 **** 0.06
33349 H 81.98436774486376 59.36760296572169 5.919102105086836 H 0.0 **** 0.06
33350 H 82.39016107546321 57.63607099266375 5.988410528921349 H 0.0 **** 0.06
33351 C 14.16432276533013 5.639831158992116 22.424944874879024 C 0.0 **** -0.24
33352 H 13.209776588207642 5.86130895803198 21.94740755229631 H 0.0 **** 0.06
33353 H 14.538576166322823 6.535607715510949 22.919946321863854 H 0.0 **** 0.06
33354 H 14.881022268341692 5.314647545232157 21.670877143685082 H 0.0 **** 0.06
33355 H 14.026640919244041 4.847316851597828 23.161127277832225 H 0.0 **** 0.06
33356 C 95.549703470248 75.22930702143918 2.3729922699311743 C 0.0 **** -0.24
33357 H 96.22741747290684 75.2447983490431 3.2264789135287515 H 0.0 **** 0.06
33358 H 96.0084698471548 75.75588978198675 1.5359386698795703 H 0.0 **** 0.06
33359 H 94.61464450223298 75.71946106781706 2.6434759627579894 H 0.0 **** 0.06
33360 H 95.34967388988633 74.19691071848143 2.087501966001085 H 0.0 **** 0.06
33361 C 98.39777666371087 64.52086071365713 37.26905446207752 C 0.0 **** -0.24
33362 H 97.49683314920615 63.90971078161343 37.327648626489264 H 0.0 **** 0.06
33363 H 98.55132380191246 65.0310035856036 38.220649592124374 H 0.0 **** 0.06
33364 H 98.28487053788731 65.25936078480166 36.475630528620755 H 0.0 **** 0.06
33365 H 99.25630661642418 63.88467550485663 37.05432579847405 H 0.0 **** 0.06
33366 C 58.504214067032585 48.198652472861426 44.985796429533764 C 0.0 **** -0.24
33367 H 59.535869474369676 48.26512608648292 45.33167950029571 H 0.0 **** 0.06
33368 H 58.20627143552093 49.14982871004639 44.546311964903 H 0.0 **** 0.06
33369 H 57.85265212497788 47.9661133685363 45.82865605612079 H 0.0 **** 0.06
33370 H 58.423437380188105 47.41052517917373 44.23665075659733 H 0.0 **** 0.06
33371 C 27.61273214589758 65.34604872347464 77.57582329896542 C 0.0 **** -0.24
33372 H 28.531662684312664 65.60460912052562 78.10187832474347 H 0.0 **** 0.06
33373 H 27.807211251593145 65.30423422317389 76.50396689620884 H 0.0 **** 0.06
33374 H 26.853173080399586 66.10092546353738 77.77950650312002 H 0.0 **** 0.06
33375 H 27.260398649895393 64.37288519338503 77.91909229086806 H 0.0 **** 0.06
33376 C 102.10923288822794 42.60503480147344 101.50733502539464 C 0.0 **** -0.24
33377 H 101.1528838076011 42.55864936954811 100.98736724774454 H 0.0 **** 0.06
33378 H 102.84734838445576 43.08888919814103 100.86615936042989 H 0.0 **** 0.06
33379 H 102.44196195286139 41.595439324993976 101.74734341556547 H 0.0 **** 0.06
33380 H 101.99493593455027 43.17922587636963 102.42716683478471 H 0.0 **** 0.06
33381 C 71.6148248382272 50.086158369120994 105.31255360824986 C 0.0 **** -0.24
33382 H 71.52392355286302 50.90303776186451 106.02846472035334 H 0.0 **** 0.06
33383 H 70.64711653350749 49.90364618162232 104.84503926987912 H 0.0 **** 0.06
33384 H 71.94483798592735 49.18575755878834 105.82946593322363 H 0.0 **** 0.06
33385 H 72.34356877310188 50.35387919028321 104.54688162384782 H 0.0 **** 0.06
33386 C 42.33781150251815 79.89772897994627 92.04885263439844 C 0.0 **** -0.24
33387 H 43.36051657532147 80.23714577590701 92.20918423333197 H 0.0 **** 0.06
33388 H 42.18412969675194 78.95033791773514 92.56704358199839 H 0.0 **** 0.06
33389 H 42.16377725756979 79.76050102351212 90.98192609200748 H 0.0 **** 0.06
33390 H 41.642951388757155 80.6420598505629 92.43773010070343 H 0.0 **** 0.06
33391 C 26.967711830660278 84.01232232993978 62.16000720375217 C 0.0 **** -0.24
33392 H 26.18823961814752 83.46653046903867 61.62845568449161 H 0.0 **** 0.06
33393 H 27.72112848253289 83.31134571530009 62.520236120416925 H 0.0 **** 0.06
33394 H 26.527929784655157 84.54175149640196 63.00543977553309 H 0.0 **** 0.06
33395 H 27.43239267168812 84.73021121930182 61.484064181087774 H 0.0 **** 0.06
33396 C 74.51061012705429 58.21998616741962 44.86844010801897 C 0.0 **** -0.24
33397 H 74.86105595334718 59.223486621388304 45.107132816319265 H 0.0 **** 0.06
33398 H 74.8314200663882 57.95378220731129 43.860638439207186 H 0.0 **** 0.06
33399 H 73.42301959068044 58.192424715447714 44.9230553937817 H 0.0 **** 0.06
33400 H 74.92845024833599 57.510523548008166 45.58212147500236 H 0.0 **** 0.06
33401 C 98.93514888407972 100.92535980806255 41.70158558944071 C 0.0 **** -0.24
33402 H 99.31291114267265 100.25321587305729 40.930960567110844 H 0.0 **** 0.06
33403 H 99.11635205911531 100.48906605848649 42.68369243858004 H 0.0 **** 0.06
33404 H 97.8635638032597 101.0722201461102 41.561734870304775 H 0.0 **** 0.06
33405 H 99.44613188543335 101.88484410099389 41.62898448929117 H 0.0 **** 0.06
33406 C 72.88889436014188 98.77624997326751 41.479910283765456 C 0.0 **** -0.24
33407 H 72.68775794856049 99.43852969590424 42.321525033625626 H 0.0 **** 0.06
33408 H 73.3126790913487 99.35398218039583 40.657718235657725 H 0.0 **** 0.06
33409 H 71.95951483599713 98.30879484227367 41.15504401298973 H 0.0 **** 0.06
33410 H 73.59727667554833 98.0053625556913 41.78465580153544 H 0.0 **** 0.06
33411 C 94.67809451536652 93.17688482696673 54.546025408977656 C 0.0 **** -0.24
33412 H 95.64184634139892 92.81066174467479 54.193934903668136 H 0.0 **** 0.06
33413 H 94.21427095766899 92.42436887518384 55.18359199197269 H 0.0 **** 0.06
33414 H 94.03203703934841 93.37720808324468 53.690515561891736 H 0.0 **** 0.06
33415 H 94.8239870206346 94.09567608376898 55.11386755392941 H 0.0 **** 0.06
33416 C 101.62743008443698 12.226773917873913 61.55432241436537 C 0.0 **** -0.24
33417 H 101.24096267341326 11.207501785574905 61.53925635668392 H 0.0 **** 0.06
33418 H 102.69295971475196 12.21542328204859 61.322355753032724 H 0.0 **** 0.06
33419 H 101.4758792350554 12.657792312952864 62.544869876386514 H 0.0 **** 0.06
33420 H 101.10026202475996 12.825958682589686 60.812732833981414 H 0.0 **** 0.06
33421 C 45.84205024765267 99.56458297777652 26.10634301404779 C 0.0 **** -0.24
33422 H 45.69885857556838 100.00159190126419 27.094591997735815 H 0.0 **** 0.06
33423 H 46.52741979887064 100.18624308852537 25.530683420169876 H 0.0 **** 0.06
33424 H 44.88242236244819 99.50906386516147 25.591794973403935 H 0.0 **** 0.06
33425 H 46.25869969535877 98.56256070671009 26.209344568843544 H 0.0 **** 0.06
33426 C 24.167101788106237 88.35786939734624 30.85229447133429 C 0.0 **** -0.24
33427 H 23.89464636875482 89.40478001666662 30.990341429015245 H 0.0 **** 0.06
33428 H 23.263467906031252 87.74702426169256 30.82854929165373 H 0.0 **** 0.06
33429 H 24.801301326689185 88.03595737864288 31.677911983328897 H 0.0 **** 0.06
33430 H 24.70814438797055 88.2446184079484 29.913059246276106 H 0.0 **** 0.06
33431 C 103.2278057461059 21.123214884076432 30.685514683577225 C 0.0 **** -0.24
33432 H 103.2692389044089 21.682476282029484 29.750531413040335 H 0.0 **** 0.06
33433 H 103.36324494745185 20.061502081926534 30.478730093753455 H 0.0 **** 0.06
33434 H 102.2595185587927 21.280419411522374 31.160028473646804 H 0.0 **** 0.06
33435 H 104.01953990336426 21.468329635821476 31.34996145267752 H 0.0 **** 0.06
33436 C 18.20676317089638 72.98531912430934 26.093719947677073 C 0.0 **** -0.24
33437 H 19.15034999709593 73.52537185079495 26.016780663256895 H 0.0 **** 0.06
33438 H 18.381061045382708 72.01592425838089 26.561582741170128 H 0.0 **** 0.06
33439 H 17.789417542496423 72.83899938686648 25.097649241534214 H 0.0 **** 0.06
33440 H 17.507448026875636 73.56075815353853 26.700433197975883 H 0.0 **** 0.06
33441 C 90.13706930289224 1.4974162221145235 42.28966707538984 C 0.0 **** -0.24
33442 H 91.16318041047404 1.8599422600200057 42.35917695047931 H 0.0 **** 0.06
33443 H 89.50930678469786 2.0501351952778464 42.98939324704159 H 0.0 **** 0.06
33444 H 90.11031929566394 0.43609980026461415 42.53656907120441 H 0.0 **** 0.06
33445 H 89.76823763214226 1.6440593070785923 41.27494954343399 H 0.0 **** 0.06
33446 C 2.1779510938692965 37.337543642281524 97.02170223487809 C 0.0 **** -0.24
33447 H 3.221859578161741 37.06017170536525 97.16973471415254 H 0.0 **** 0.06
33448 H 2.0580105324775104 37.78421979283592 96.03410948575386 H 0.0 **** 0.06
33449 H 1.8808916449803235 38.05635636638068 97.784994861204 H 0.0 **** 0.06
33450 H 1.5524852609734978 36.4479989784011 97.09703146755858 H 0.0 **** 0.06
33451 C 41.11810143023109 41.36181081713988 43.452815947284506 C 0.0 **** -0.24
33452 H 41.38822691484839 40.63655122627284 42.68499599784431 H 0.0 **** 0.06
33453 H 41.73199928380444 41.19787843725129 44.33898881470404 H 0.0 **** 0.06
33454 H 40.066033818356104 41.24290846039318 43.711185179433556 H 0.0 **** 0.06
33455 H 41.288323701441755 42.370583786767384 43.07442163088888 H 0.0 **** 0.06
33456 C 67.6230318835645 26.09301970433222 40.536754338155994 C 0.0 **** -0.24
33457 H 68.62141521410618 26.009943708577737 40.966467989006084 H 0.0 **** 0.06
33458 H 67.04232055087935 26.82088346972307 41.10318560761995 H 0.0 **** 0.06
33459 H 67.12887345624023 25.12231602555852 40.577270061763144 H 0.0 **** 0.06
33460 H 67.69995474059128 26.417775899497258 39.49888343284511 H 0.0 **** 0.06
33461 C 12.89517960976626 45.38619479684388 62.7373989327414 C 0.0 **** -0.24
33462 H 12.371322275709774 45.385368873181136 61.781735550034426 H 0.0 **** 0.06
33463 H 13.608421367510232 46.21111747761503 62.75977184333789 H 0.0 **** 0.06
33464 H 13.425925851661617 44.44219131904322 62.861844012716915 H 0.0 **** 0.06
33465 H 12.173909044072765 45.50693777952847 63.54620709967861 H 0.0 **** 0.06
33466 C 61.42418109780553 28.76407844206058 107.06501968440064 C 0.0 **** -0.24
33467 H 60.8443151387894 29.65016035094007 106.81014923366764 H 0.0 **** 0.06
33468 H 62.42448822382677 29.06157928453935 107.37864299506533 H 0.0 **** 0.06
33469 H 61.49474280548087 28.112883090469808 106.19343756332117 H 0.0 **** 0.06
33470 H 60.93250083441146 28.22956096915432 107.87791346837508 H 0.0 **** 0.06
33471 C 70.70164831180934 37.17243264446961 57.31930774681453 C 0.0 **** -0.24
33472 H 69.69096228203635 37.51803410662964 57.098742215324435 H 0.0 **** 0.06
33473 H 70.74182020647937 36.0865618298609 57.22744617062997 H 0.0 **** 0.06
33474 H 70.97005001530054 37.46197771726227 58.33513985365875 H 0.0 **** 0.06
33475 H 71.40144953600878 37.62327891465 56.61670506609576 H 0.0 **** 0.06
33476 C 78.96646043679269 27.27415400488647 88.78226095886811 C 0.0 **** -0.24
33477 H 78.0796785756253 26.690728316605828 88.53448665257014 H 0.0 **** 0.06
33478 H 79.59706822737331 26.70262234628953 89.46399780688733 H 0.0 **** 0.06
33479 H 78.66570666414265 28.206069761307617 89.26017817201637 H 0.0 **** 0.06
33480 H 79.52213490064325 27.494666550313866 87.8713977598444 H 0.0 **** 0.06
33481 C 103.43242073121786 102.09944096288368 59.62095272499244 C 0.0 **** -0.24
33482 H 104.07518762692146 102.30085150990902 60.477683836975615 H 0.0 **** 0.06
33483 H 103.5212413935008 101.05075818774765 59.33825322265431 H 0.0 **** 0.06
33484 H 103.73520552659572 102.72930286929281 58.78452218391603 H 0.0 **** 0.06
33485 H 102.39682348131292 102.31782907556706 59.88494658071721 H 0.0 **** 0.06
33486 C 27.35147927205034 78.80321841767179 40.48814043460348 C 0.0 **** -0.24
33487 H 26.67903400533632 79.22425202128153 39.73986786845566 H 0.0 **** 0.06
33488 H 27.328890639519642 77.71525974080501 40.42546366117344 H 0.0 **** 0.06
33489 H 27.029154858929246 79.1170188270435 41.481638317277714 H 0.0 **** 0.06
33490 H 28.36541817451763 79.15786221103272 40.305568951257584 H 0.0 **** 0.06
33491 C 33.401511904938104 13.324795420114029 27.396789037154676 C 0.0 **** -0.24
33492 H 33.66119643859969 14.380053220749716 27.31543424383659 H 0.0 **** 0.06
33493 H 32.32651969502771 13.203300585512338 27.261702084454285 H 0.0 **** 0.06
33494 H 33.68803230988223 12.955949846698331 28.38221268125973 H 0.0 **** 0.06
33495 H 33.930505232864846 12.760470321073598 26.629706326572986 H 0.0 **** 0.06
33496 C 4.996127758877636 22.700276834629847 84.1712300613691 C 0.0 **** -0.24
33497 H 4.739320193636264 23.46973512245495 84.89885324340264 H 0.0 **** 0.06
33498 H 6.053887276694317 22.45195876047984 84.26313590146634 H 0.0 **** 0.06
33499 H 4.795328570797022 23.06944848088179 83.16527642944703 H 0.0 **** 0.06
33500 H 4.395974994382905 21.809964974702694 84.35765467116062 H 0.0 **** 0.06
33501 C 49.41736298811628 104.58845630449383 5.247093148353855 C 0.0 **** -0.24
33502 H 49.17069122846172 105.02780723629135 6.213736576388328 H 0.0 **** 0.06
33503 H 48.49952758219868 104.37423903644351 4.6993360413076175 H 0.0 **** 0.06
33504 H 49.97288853679049 103.66318487637051 5.400692844819531 H 0.0 **** 0.06
33505 H 50.02832790801688 105.2879207379674 4.675390307084001 H 0.0 **** 0.06
33506 C 3.3785463727853084 56.23462558872632 86.6924777466613 C 0.0 **** -0.24
33507 H 3.3208460387783703 56.877174539122336 85.81487353854368 H 0.0 **** 0.06
33508 H 2.535482727657609 56.44307953940529 87.3524257926578 H 0.0 **** 0.06
33509 H 4.311612936708116 56.4266842904068 87.22318293581634 H 0.0 **** 0.06
33510 H 3.3465755663428354 55.1905227932441 86.381621005449 H 0.0 **** 0.06
33511 C 88.31789735949647 19.43468313139315 29.415551910836484 C 0.0 **** -0.24
33512 H 87.63634053453927 19.124183176702868 28.623195419112307 H 0.0 **** 0.06
33513 H 88.52583785105995 20.500893308797565 29.317687786936375 H 0.0 **** 0.06
33514 H 89.249480499403 18.873999335756 29.334340615193298 H 0.0 **** 0.06
33515 H 87.8597551911222 19.241030472117412 30.385228191024964 H 0.0 **** 0.06
33516 C 7.5847128707846 68.50378731017237 28.754668215954922 C 0.0 **** -0.24
33517 H 7.375674358080772 67.82451785806819 29.58079447461924 H 0.0 **** 0.06
33518 H 8.104636528190596 69.38447081285102 29.1312271731814 H 0.0 **** 0.06
33519 H 6.647672096783523 68.80700821514583 28.287657105557486 H 0.0 **** 0.06
33520 H 8.210868500083407 67.99915235462423 28.01899411046159 H 0.0 **** 0.06
33521 C 107.01439977350326 103.64765769434077 64.65945309474017 C 0.0 **** -0.24
33522 H 106.91967327101422 104.36389002008622 65.4752268516404 H 0.0 **** 0.06
33523 H 106.057473754972 103.55334230253811 64.14575091724356 H 0.0 **** 0.06
33524 H 107.3103198571127 102.67830669236062 65.05912119833596 H 0.0 **** 0.06
33525 H 107.77153847642545 103.99651628239629 63.95671672208567 H 0.0 **** 0.06
33526 C 23.601186948495368 103.24215944017826 59.45963580503964 C 0.0 **** -0.24
33527 H 23.461165804556686 104.13486724781099 58.8497755150572 H 0.0 **** 0.06
33528 H 24.00495471003852 103.52672644124408 60.43170985686545 H 0.0 **** 0.06
33529 H 24.29552141858065 102.56611922902309 58.96104682974393 H 0.0 **** 0.06
33530 H 22.642243591866873 102.7428608376981 59.59672421245885 H 0.0 **** 0.06
33531 C 8.69095649401828 38.90611338644834 64.80022525983551 C 0.0 **** -0.24
33532 H 7.740716839389279 38.576567132043294 65.21974587550957 H 0.0 **** 0.06
33533 H 9.489747068747931 38.252909062893195 65.1513455145004 H 0.0 **** 0.06
33534 H 8.892931030879993 39.929115808560596 65.11806806619668 H 0.0 **** 0.06
33535 H 8.640799010402873 38.8667897157091 63.71168558510388 H 0.0 **** 0.06
33536 C 27.934521128528292 80.3135005170704 14.685072852519063 C 0.0 **** -0.24
33537 H 27.811451419833805 79.57129003892354 15.473721161310674 H 0.0 **** 0.06
33538 H 28.91917753004958 80.19851315647827 14.229500150224474 H 0.0 **** 0.06
33539 H 27.84565561931699 81.31353343185549 15.109084387263668 H 0.0 **** 0.06
33540 H 27.16470499985399 80.16941806772456 13.928057656543238 H 0.0 **** 0.06
33541 C 52.67306121781036 84.18598717619977 72.18905511093293 C 0.0 **** -0.24
33542 H 52.21275999473258 84.13992707438246 73.17572320667924 H 0.0 **** 0.06
33543 H 53.650344916557515 83.70387235090462 72.22060813927808 H 0.0 **** 0.06
33544 H 52.79127397736792 85.22829309913084 71.89201498388034 H 0.0 **** 0.06
33545 H 52.038180742740764 83.67270671296939 71.46639842473151 H 0.0 **** 0.06
33546 C 35.138291893802105 17.133921464922793 63.02709524736366 C 0.0 **** -0.24
33547 H 34.53020324597961 18.037801187929148 62.975110508333955 H 0.0 **** 0.06
33548 H 34.631775540437324 16.325180218517318 62.5001953574851 H 0.0 **** 0.06
33549 H 35.28251735386241 16.85438053026496 64.07038071017894 H 0.0 **** 0.06
33550 H 36.10614497307909 17.32093524528196 62.56358807504142 H 0.0 **** 0.06
33551 C 6.048732755385288 9.644735827662572 46.159941595654885 C 0.0 **** -0.24
33552 H 4.994457893576765 9.372837517012073 46.20918101081688 H 0.0 **** 0.06
33553 H 6.421584870635414 9.833906734869572 47.16666915790776 H 0.0 **** 0.06
33554 H 6.163299595747631 10.544283793480332 45.55557450595796 H 0.0 **** 0.06
33555 H 6.613553706881362 8.829737330446846 45.709582454631715 H 0.0 **** 0.06
33556 C 72.33781580754021 44.86364064583326 76.62587613171819 C 0.0 **** -0.24
33557 H 71.2988046123627 45.16763727874595 76.75432264608736 H 0.0 **** 0.06
33558 H 72.63951417187039 45.031391878986184 75.59180343366039 H 0.0 **** 0.06
33559 H 72.43979568427535 43.80572534308223 76.86700888986014 H 0.0 **** 0.06
33560 H 72.97284708349719 45.45078523164212 77.28939269392892 H 0.0 **** 0.06
33561 C 87.52159273400716 101.89169764525336 24.41359035857343 C 0.0 **** -0.24
33562 H 86.50376174492001 102.12192674495462 24.099279474939863 H 0.0 **** 0.06
33563 H 88.18833330603893 101.94530250688533 23.553468741992702 H 0.0 **** 0.06
33564 H 87.55225240807181 100.88783557674572 24.836339227902613 H 0.0 **** 0.06
33565 H 87.84038178276232 102.61270363957986 25.16643537096155 H 0.0 **** 0.06
33566 C 56.377013950339574 106.69163763928549 58.27442434042999 C 0.0 **** -0.24
33567 H 56.96521949716151 105.78831220058083 58.43806456792231 H 0.0 **** 0.06
33568 H 56.670738252886906 107.45192491884313 58.99728666189958 H 0.0 **** 0.06
33569 H 55.3184141160167 106.46207481469497 58.396461274505725 H 0.0 **** 0.06
33570 H 56.55412731017998 107.06164982919387 57.264123600539676 H 0.0 **** 0.06
33571 C 7.199578148719638 67.13982507879888 82.04768559754184 C 0.0 **** -0.24
33572 H 7.235076095654563 67.81671119934833 82.90138214130643 H 0.0 **** 0.06
33573 H 7.958899016992632 66.36657536106077 82.16626224199054 H 0.0 **** 0.06
33574 H 7.389996289494434 67.70054554376014 81.13193330963438 H 0.0 **** 0.06
33575 H 6.214781791489486 66.67703168336806 81.99233157819391 H 0.0 **** 0.06
33576 C 43.46183763487534 54.05810057180217 65.93149992162188 C 0.0 **** -0.24
33577 H 43.947763320416925 53.13489965505692 66.2470708302954 H 0.0 **** 0.06
33578 H 43.671990855908575 54.236573909763734 64.87645554048339 H 0.0 **** 0.06
33579 H 43.84204909474255 54.88881824458997 66.52441139344074 H 0.0 **** 0.06
33580 H 42.3851110334744 53.96971446042451 66.07779909895777 H 0.0 **** 0.06
33581 C 64.16057425462405 65.0969158374642 1.1758753625185676 C 0.0 **** -0.24
33582 H 63.48772271411907 64.25258304807556 1.3273404540098 H 0.0 **** 0.06
33583 H 65.13165890581048 64.73161484699 0.8384178150780883 H 0.0 **** 0.06
33584 H 64.28216342604105 65.63691911772895 2.1154035866460816 H 0.0 **** 0.06
33585 H 63.74201792742019 65.76561777582735 0.4242198625459679 H 0.0 **** 0.06
33586 C 17.195132558417612 6.117564964623684 97.38463991374347 C 0.0 **** -0.24
33587 H 17.24019117791326 5.288144155834347 96.67788775570634 H 0.0 **** 0.06
33588 H 17.611886693150666 5.80043979683653 98.3414431333803 H 0.0 **** 0.06
33589 H 16.15780386920966 6.4215812628600055 97.52261078408506 H 0.0 **** 0.06
33590 H 17.772046563494996 6.956627935243276 96.99678526077452 H 0.0 **** 0.06
33591 C 33.21451358206042 41.99144539043681 24.201399348869288 C 0.0 **** -0.24
33592 H 32.43563681061636 42.67871568184637 23.873597347144482 H 0.0 **** 0.06
33593 H 33.77852354605628 42.44375262253442 25.016825380361837 H 0.0 **** 0.06
33594 H 33.88494654169796 41.77807739665167 23.368958091612726 H 0.0 **** 0.06
33595 H 32.757686770752514 41.063183248505226 24.54577183149742 H 0.0 **** 0.06
33596 C 44.051446356479204 20.849097756334345 20.685911376057902 C 0.0 **** -0.24
33597 H 43.376569261135316 20.224271681846858 21.27119507212359 H 0.0 **** 0.06
33598 H 43.53917232428859 21.76953383356721 20.402271565840067 H 0.0 **** 0.06
33599 H 44.35649607449037 20.311266480243546 19.788117464993718 H 0.0 **** 0.06
33600 H 44.930576535137945 21.09101803286049 21.281775739766402 H 0.0 **** 0.06
33601 C 8.611208373380919 36.63277929443137 5.8723828657458625 C 0.0 **** -0.24
33602 H 8.076529316964752 35.975420885739936 6.557390089469237 H 0.0 **** 0.06
33603 H 9.588212033966215 36.20537916056736 5.646345945917119 H 0.0 **** 0.06
33604 H 8.740925829456785 37.61141489417304 6.335704032181468 H 0.0 **** 0.06
33605 H 8.038615555095646 36.74001675802049 4.951297482960371 H 0.0 **** 0.06
33606 C 106.70283400702753 99.80585147620718 58.97900071377103 C 0.0 **** -0.24
33607 H 106.85977528792883 99.5720584488409 57.92535038046128 H 0.0 **** 0.06
33608 H 105.8578667756009 99.22808276207141 59.35652753377855 H 0.0 **** 0.06
33609 H 106.4937190927731 100.86904583607229 59.08772657610797 H 0.0 **** 0.06
33610 H 107.59931319148708 99.55099226009123 59.544623008217684 H 0.0 **** 0.06
33611 C 79.82451928662513 51.323919822088925 25.662059627431518 C 0.0 **** -0.24
33612 H 79.75459638005285 50.51417904327093 24.935986387757495 H 0.0 **** 0.06
33613 H 79.3604579066899 52.22097523826878 25.25122832707268 H 0.0 **** 0.06
33614 H 80.87267746369415 51.52438876255971 25.882759243956784 H 0.0 **** 0.06
33615 H 79.30825752226505 51.03545510271647 26.57868533525965 H 0.0 **** 0.06
33616 C 42.07990592257852 91.13808789038853 69.61208144015771 C 0.0 **** -0.24
33617 H 41.09220193450466 91.47102495692957 69.2905452420089 H 0.0 **** 0.06
33618 H 42.09387988429779 90.04963133741506 69.67382119659109 H 0.0 **** 0.06
33619 H 42.304527182854486 91.56163065630534 70.59087943376844 H 0.0 **** 0.06
33620 H 42.82673864259061 91.47100192141454 68.8916865355809 H 0.0 **** 0.06
33621 C 33.613280386836976 48.40340979312856 46.035484161530235 C 0.0 **** -0.24
33622 H 33.47155725469648 49.26884615662368 45.38844850235472 H 0.0 **** 0.06
33623 H 33.65541076295864 47.49921219501164 45.4281140528841 H 0.0 **** 0.06
33624 H 32.78050126569008 48.333263589590985 46.73581993103102 H 0.0 **** 0.06
33625 H 34.54579001188134 48.513431871411285 46.590413633535036 H 0.0 **** 0.06
33626 C 92.36334225508335 103.57414803247718 15.767824697867468 C 0.0 **** -0.24
33627 H 91.76447879290362 102.92121026715061 15.132007438425433 H 0.0 **** 0.06
33628 H 93.14257199390713 102.98915702594807 16.25613119215427 H 0.0 **** 0.06
33629 H 91.72327221212572 104.03048216906998 16.52324923143391 H 0.0 **** 0.06
33630 H 92.81983933486896 104.35414949080285 15.158824838561799 H 0.0 **** 0.06
33631 C 54.791134966010134 45.24775316939191 93.36407700757152 C 0.0 **** -0.24
33632 H 55.40477514162873 45.96599338779082 93.90764523789004 H 0.0 **** 0.06
33633 H 53.788635349992234 45.654256839391344 93.2307166298166 H 0.0 **** 0.06
33634 H 54.73516348217473 44.3167002385276 93.92928440519118 H 0.0 **** 0.06
33635 H 55.23686390010093 45.05397996449067 92.38822948465504 H 0.0 **** 0.06
33636 C 24.74338512034572 75.81358304121997 62.87747509507369 C 0.0 **** -0.24
33637 H 25.078990787145983 75.34449369960674 61.95244496314797 H 0.0 **** 0.06
33638 H 25.322681001736697 75.42204414797601 63.7142034413784 H 0.0 **** 0.06
33639 H 23.68598401524622 75.59564262400632 63.03214134824037 H 0.0 **** 0.06
33640 H 24.885188113933225 76.892563014046 62.80957904242763 H 0.0 **** 0.06
33641 C 93.31560163527735 73.57152146067068 39.7247264265344 C 0.0 **** -0.24
33642 H 93.32108609143654 72.96117608298067 38.82195063888696 H 0.0 **** 0.06
33643 H 93.91057469713917 73.08258515277979 40.49634360202424 H 0.0 **** 0.06
33644 H 92.29092841630359 73.68980356379632 40.07726415710789 H 0.0 **** 0.06
33645 H 93.7391572766565 74.55092120974433 39.50341796684103 H 0.0 **** 0.06
33646 C 17.733256529242908 105.96935798799973 13.60521773715189 C 0.0 **** -0.24
33647 H 18.452977767320306 106.73478653636525 13.315685068972783 H 0.0 **** 0.06
33648 H 17.941493996039412 105.64146372468875 14.624130520908423 H 0.0 **** 0.06
33649 H 17.81196702387689 105.11965160264765 12.926304288444314 H 0.0 **** 0.06
33650 H 16.724419043641035 106.38191995943373 13.555134170990712 H 0.0 **** 0.06
33651 C 2.317835268797424 64.63586672206333 24.169014002681507 C 0.0 **** -0.24
33652 H 2.1379431590446814 64.10778947985182 23.23328920192361 H 0.0 **** 0.06
33653 H 1.3743039697390884 65.01811509118386 24.55822290235423 H 0.0 **** 0.06
33654 H 3.000773516577553 65.4664730336163 23.991601495639287 H 0.0 **** 0.06
33655 H 2.7595233112130444 63.9506920824648 24.893571218989223 H 0.0 **** 0.06
33656 C 23.953523923264697 104.66966125290766 55.5724144586111 C 0.0 **** -0.24
33657 H 23.52207923405649 104.5315734595678 54.58100084701019 H 0.0 **** 0.06
33658 H 23.230226174087193 105.17246920999963 56.21542712816627 H 0.0 **** 0.06
33659 H 24.85478249059338 105.27728665002574 55.49448466097461 H 0.0 **** 0.06
33660 H 24.20459379570093 103.69843034840065 55.997355750099906 H 0.0 **** 0.06
33661 C 75.29348044288108 105.06876729635479 69.58991717491355 C 0.0 **** -0.24
33662 H 75.78359885336 105.62055474302542 68.78778921484937 H 0.0 **** 0.06
33663 H 75.15579667024473 105.7255091044969 70.44978585924366 H 0.0 **** 0.06
33664 H 75.91179181672305 104.21860819296344 69.87686006041864 H 0.0 **** 0.06
33665 H 74.3226742952705 104.71264038615308 69.24425146087646 H 0.0 **** 0.06
33666 C 52.5560331041302 42.295881131982426 91.8856026537585 C 0.0 **** -0.24
33667 H 51.68273988157022 41.692778237401534 92.13573580199267 H 0.0 **** 0.06
33668 H 53.00104885932381 42.687615109189416 92.80076286809964 H 0.0 **** 0.06
33669 H 52.25360029885256 43.124355218430686 91.24474946212717 H 0.0 **** 0.06
33670 H 53.285145178208296 41.6781082072218 91.36116112926106 H 0.0 **** 0.06
33671 C 43.00138507641725 89.97135937141451 26.07141799027653 C 0.0 **** -0.24
33672 H 42.4457733322173 90.81581809716681 25.665142589915135 H 0.0 **** 0.06
33673 H 43.98733430099304 90.30760135189635 26.393696141152503 H 0.0 **** 0.06
33674 H 43.11147914531318 89.20599905334288 25.30272128902139 H 0.0 **** 0.06
33675 H 42.46141606449277 89.55657480946402 26.92199596685282 H 0.0 **** 0.06
33676 C 74.26672858369821 66.22751903704662 91.20352126744538 C 0.0 **** -0.24
33677 H 73.28173978072383 65.86287736592155 90.9142909821393 H 0.0 **** 0.06
33678 H 75.02423002473785 65.77132620635581 90.56439961943073 H 0.0 **** 0.06
33679 H 74.46082355542018 65.96399149658782 92.24328089833944 H 0.0 **** 0.06
33680 H 74.3006758505748 67.31145994482998 91.0908827775562 H 0.0 **** 0.06
33681 C 86.75700516668341 10.741095821628164 67.10326303097611 C 0.0 **** -0.24
33682 H 85.71387980743225 10.890073538023671 66.82417910752986 H 0.0 **** 0.06
33683 H 87.19348530382764 11.696127049059896 67.39837525524062 H 0.0 **** 0.06
33684 H 87.30573695483461 10.336724164755651 66.2530126739887 H 0.0 **** 0.06
33685 H 86.813254982692 10.042814342642487 67.93811309217408 H 0.0 **** 0.06
33686 C 88.59728515664683 20.60490042540937 95.94074286118581 C 0.0 **** -0.24
33687 H 89.11967513063232 21.280373671727205 96.61892673099543 H 0.0 **** 0.06
33688 H 87.80251041920721 20.090544887376566 96.48152029281898 H 0.0 **** 0.06
33689 H 89.3013788647555 19.87327921963194 95.54480580299706 H 0.0 **** 0.06
33690 H 88.16697026334433 21.177892899125823 95.11864707504921 H 0.0 **** 0.06
33691 C 102.1296197972629 10.887910081478509 80.32900119260947 C 0.0 **** -0.24
33692 H 101.40023340112168 10.089472741009345 80.46678734451717 H 0.0 **** 0.06
33693 H 101.60974437065059 11.839324913854753 80.21703664494066 H 0.0 **** 0.06
33694 H 102.72074501436967 10.688665737368552 79.43403724488718 H 0.0 **** 0.06
33695 H 102.78771770936848 10.93273020082735 81.19616724078429 H 0.0 **** 0.06
33696 C 63.834785836238936 85.42598253848593 6.798266827425351 C 0.0 **** -0.24
33697 H 64.81402527051362 85.82166686937859 7.069898565637203 H 0.0 **** 0.06
33698 H 63.10307602480792 85.71939116429877 7.551388241277628 H 0.0 **** 0.06
33699 H 63.886338679202936 84.33864505060706 6.745208519340887 H 0.0 **** 0.06
33700 H 63.538639099953016 85.82410045222866 5.827740709539693 H 0.0 **** 0.06
33701 C 57.103008861639466 15.111986862539254 35.731110977827825 C 0.0 **** -0.24
33702 H 57.314684826540486 14.401632109750096 36.52937036579448 H 0.0 **** 0.06
33703 H 58.02677405358406 15.351236297475538 35.20364693407325 H 0.0 **** 0.06
33704 H 56.680699576994584 16.02199638042657 36.15714178232557 H 0.0 **** 0.06
33705 H 56.39002113253298 14.672404479026795 35.033564179420864 H 0.0 **** 0.06
33706 C 45.67567596507207 78.71960425850153 75.80872486087976 C 0.0 **** -0.24
33707 H 44.878572319259575 79.1561311387411 75.2066021280498 H 0.0 **** 0.06
33708 H 46.60874491026763 78.74055496212512 75.24568035325765 H 0.0 **** 0.06
33709 H 45.422149385450325 77.6885428240042 76.05374989362059 H 0.0 **** 0.06
33710 H 45.791313440917286 79.29449644407907 76.72810057487311 H 0.0 **** 0.06
33711 C 83.94506168916739 73.85770359211276 22.719478286642072 C 0.0 **** -0.24
33712 H 83.82981533354969 74.84605305324123 22.273413971849294 H 0.0 **** 0.06
33713 H 84.93325183249028 73.77573161076248 23.17153637897634 H 0.0 **** 0.06
33714 H 83.83259914594831 73.09599392532323 21.947918652188093 H 0.0 **** 0.06
33715 H 83.18146395032977 73.71416461116985 23.484927063678114 H 0.0 **** 0.06
33716 C 81.42044879538508 97.87559773944174 51.77534509508061 C 0.0 **** -0.24
33717 H 80.7354507753075 97.39713779427639 51.07575844854864 H 0.0 **** 0.06
33718 H 81.67257986031618 97.17679065587166 52.5719699880585 H 0.0 **** 0.06
33719 H 80.94457234038669 98.75834965419999 52.20251762190105 H 0.0 **** 0.06
33720 H 82.32825108556585 98.17182352454431 51.24965507409948 H 0.0 **** 0.06
33721 C 84.38572983019631 19.311171376807597 10.71320322729413 C 0.0 **** -0.24
33722 H 83.69581823964792 20.10837818016754 10.43892425490671 H 0.0 **** 0.06
33723 H 83.81986703400868 18.437167683564635 11.036512012829888 H 0.0 **** 0.06
33724 H 85.027760645357 19.649884961043973 11.527106357778365 H 0.0 **** 0.06
33725 H 84.99881436891967 19.049818785045797 9.851387224153314 H 0.0 **** 0.06
33726 C 41.54532676336895 101.53180013749049 73.57681633890368 C 0.0 **** -0.24
33727 H 42.30457048451732 102.25940441884154 73.28867969631017 H 0.0 **** 0.06
33728 H 40.8855763625625 101.9719356685228 74.32372715906544 H 0.0 **** 0.06
33729 H 42.02882318818673 100.64800746787868 73.99372455153741 H 0.0 **** 0.06
33730 H 40.96413884276872 101.2476573782559 72.69982421869275 H 0.0 **** 0.06
33731 C 96.6333335422188 59.63898010525182 18.88799423337096 C 0.0 **** -0.24
33732 H 96.2588575958163 59.804852197647335 19.898771153501997 H 0.0 **** 0.06
33733 H 96.67324827390149 60.58955505183715 18.356217225207487 H 0.0 **** 0.06
33734 H 95.9679782806373 58.95523733781502 18.36098578596605 H 0.0 **** 0.06
33735 H 97.63349062800641 59.2080630228138 18.93860056068897 H 0.0 **** 0.06
33736 C 39.83884458670141 88.23561231136966 54.3852602357633 C 0.0 **** -0.24
33737 H 40.747055574849384 88.39556806071124 53.80454460283924 H 0.0 **** 0.06
33738 H 39.48209408060751 87.2169230787668 54.228158028024474 H 0.0 **** 0.06
33739 H 39.07273434107992 88.94280375553348 54.06403732557267 H 0.0 **** 0.06
33740 H 40.051788565482184 88.38690121117128 55.44287745263455 H 0.0 **** 0.06
33741 C 84.63130509332146 99.71650889257917 94.49689150503633 C 0.0 **** -0.24
33742 H 84.97753777933058 98.89475675577178 95.12207224967031 H 0.0 **** 0.06
33743 H 84.06813213965928 99.31859372845501 93.65284444172117 H 0.0 **** 0.06
33744 H 85.48917071236862 100.27936982257746 94.12954311257359 H 0.0 **** 0.06
33745 H 83.98982669308668 100.37401718820081 95.08420235978701 H 0.0 **** 0.06
33746 C 75.68729206546993 6.759742912434319 1.3529363493665727 C 0.0 **** -0.24
33747 H 75.56487645644012 6.839392795392342 0.27340915753782724 H 0.0 **** 0.06
33748 H 75.74519633045622 5.708424696308057 1.6352992776724165 H 0.0 **** 0.06
33749 H 74.83505926430439 7.2242823686657545 1.8506341810768845 H 0.0 **** 0.06
33750 H 76.60410457585255 7.2681408529935965 1.6530231809053504 H 0.0 **** 0.06
33751 C 5.734770924956763 94.64962802808236 27.768986572862104 C 0.0 **** -0.24
33752 H 6.57972775592458 94.58973549873843 28.4553921185356 H 0.0 **** 0.06
33753 H 5.52876849872986 95.69474872918673 27.538462351970907 H 0.0 **** 0.06
33754 H 4.857444507646335 94.19959263227351 28.233850227961966 H 0.0 **** 0.06
33755 H 5.9734382096963685 94.11474451549611 26.850195398166477 H 0.0 **** 0.06
33756 C 96.83798275159532 47.3448839186313 104.5462832913208 C 0.0 **** -0.24
33757 H 96.60442227775499 48.37855613178908 104.79961889258706 H 0.0 **** 0.06
33758 H 97.0863774660044 46.795214997779794 105.45476768864086 H 0.0 **** 0.06
33759 H 97.68723959667511 47.32117222431401 103.86302250737901 H 0.0 **** 0.06
33760 H 95.97372738165603 46.8837553385747 104.06720204436084 H 0.0 **** 0.06
33761 C 37.34603543808987 103.99217975064963 51.03827563693037 C 0.0 **** -0.24
33762 H 37.77796450031164 104.71628721100534 51.72951033356692 H 0.0 **** 0.06
33763 H 36.993954319760576 104.50829813920423 50.14447451037883 H 0.0 **** 0.06
33764 H 36.50893285498799 103.48577329636535 51.519279271451715 H 0.0 **** 0.06
33765 H 38.103696722890675 103.2590086027266 50.760482219263956 H 0.0 **** 0.06
33766 C 94.36951945224669 94.88335098351514 45.39135790732712 C 0.0 **** -0.24
33767 H 93.64762958481043 95.36215147541627 46.0527207430448 H 0.0 **** 0.06
33768 H 95.00255476702955 95.64416856847332 44.93358760764454 H 0.0 **** 0.06
33769 H 93.84056989608524 94.33369324571261 44.61259449105245 H 0.0 **** 0.06
33770 H 94.98753732098189 94.19400763369038 45.96728620226975 H 0.0 **** 0.06
33771 C 106.78977125810759 82.90757299359981 6.302764124720056 C 0.0 **** -0.24
33772 H 107.40540326345308 82.54509693069082 5.478334542558258 H 0.0 **** 0.06
33773 H 106.58531584962368 82.08710195048228 6.9912414306826065 H 0.0 **** 0.06
33774 H 105.8500487814529 83.2959981536477 5.910157109080416 H 0.0 **** 0.06
33775 H 107.31995887953094 83.70083560209687 6.829151051957922 H 0.0 **** 0.06
33776 C 1.2193121378957699 78.4211681102739 26.224953072914843 C 0.0 **** -0.24
33777 H 2.1612402950980822 78.07738772835407 25.798805149182385 H 0.0 **** 0.06
33778 H 0.6308234104531749 78.91732617869124 25.45248822171797 H 0.0 **** 0.06
33779 H 1.4211351941982429 79.12087820420945 27.034818406444685 H 0.0 **** 0.06
33780 H 0.6636960925470703 77.5668894154843 26.61266361200427 H 0.0 **** 0.06
33781 C 65.77955621261953 45.104332742345264 55.431290476164925 C 0.0 **** -0.24
33782 H 65.92442280415128 44.99184499919693 54.35665151197599 H 0.0 **** 0.06
33783 H 64.87640060787518 45.68577296554406 55.61753747283738 H 0.0 **** 0.06
33784 H 66.63885261019226 45.61961878754721 55.8612145736294 H 0.0 **** 0.06
33785 H 65.68003716900381 44.12014727875248 55.888873945610875 H 0.0 **** 0.06
33786 C 9.594084873535797 48.2798479961365 8.406854937022388 C 0.0 **** -0.24
33787 H 10.060984906434712 48.48806419185396 7.4443113950007245 H 0.0 **** 0.06
33788 H 9.40811586652874 49.21848148760471 8.930671213788045 H 0.0 **** 0.06
33789 H 10.257596056048992 47.65515024351008 9.004059501511023 H 0.0 **** 0.06
33790 H 8.649727499500928 47.759625596643204 8.24725072705742 H 0.0 **** 0.06
33791 C 81.07040814506114 56.007096234784655 77.83294859238343 C 0.0 **** -0.24
33792 H 80.30753348339063 56.17550757454555 77.07362420600552 H 0.0 **** 0.06
33793 H 80.60676107301742 55.5949320978184 78.72938199182086 H 0.0 **** 0.06
33794 H 81.55517721369594 56.95284403713387 78.07568252812138 H 0.0 **** 0.06
33795 H 81.8127053815988 55.30566121667559 77.45248122185755 H 0.0 **** 0.06
33796 C 28.429453803521568 104.72218242366348 82.8668674947985 C 0.0 **** -0.24
33797 H 27.88177433170722 104.42624212728913 81.97302457230535 H 0.0 **** 0.06
33798 H 29.27549367121992 104.0498362003036 83.01451191861389 H 0.0 **** 0.06
33799 H 27.769025987033615 104.67007953776718 83.73170102591894 H 0.0 **** 0.06
33800 H 28.793912899029408 105.74306325303588 82.7484291096236 H 0.0 **** 0.06
33801 C 69.2741920026954 41.703362672143044 68.24519398691857 C 0.0 **** -0.24
33802 H 68.38848848537032 41.715408893677136 67.61016259793101 H 0.0 **** 0.06
33803 H 69.92318757605474 42.53818815069587 67.98013005779876 H 0.0 **** 0.06
33804 H 69.81046439397647 40.76568500033753 68.10111348975273 H 0.0 **** 0.06
33805 H 68.97265935641983 41.793833275425214 69.28925188249052 H 0.0 **** 0.06
33806 C 52.36934936245319 78.36660098357399 19.2013616206371 C 0.0 **** -0.24
33807 H 52.323802797663205 79.42133401980857 18.930089725664686 H 0.0 **** 0.06
33808 H 52.22881491156765 78.26153097458837 20.27671552792401 H 0.0 **** 0.06
33809 H 53.341930984623 77.96190957821608 18.92038904818901 H 0.0 **** 0.06
33810 H 51.58405258301941 77.82212083864695 18.67643298285907 H 0.0 **** 0.06
33811 C 65.63820001049287 25.594779668917084 33.911227371083385 C 0.0 **** -0.24
33812 H 65.23274044511206 24.585206157767004 33.838257423758535 H 0.0 **** 0.06
33813 H 66.38096189940208 25.74445146396019 33.128159813279126 H 0.0 **** 0.06
33814 H 66.10593289039562 25.72795952541648 34.88667792447211 H 0.0 **** 0.06
33815 H 64.83306832025839 26.319406286635086 33.79307960066262 H 0.0 **** 0.06
33816 C 46.40308074711555 2.8107340069643243 45.778093802479155 C 0.0 **** -0.24
33817 H 46.21375511695504 3.599964097751652 45.05148778024859 H 0.0 **** 0.06
33818 H 47.254647119741605 3.0864134177427616 46.40116790869972 H 0.0 **** 0.06
33819 H 46.621202963644976 1.8801506783805308 45.2546694541857 H 0.0 **** 0.06
33820 H 45.52174277404089 2.676956476412414 46.40591518592203 H 0.0 **** 0.06
33821 C 63.33161867488097 33.25049476018086 63.58678900034916 C 0.0 **** -0.24
33822 H 63.18848343813306 32.22361931195206 63.922735145016816 H 0.0 **** 0.06
33823 H 62.671103108206 33.451912738097064 62.74244501342649 H 0.0 **** 0.06
33824 H 64.3681639657778 33.39111025697726 63.27914003884153 H 0.0 **** 0.06
33825 H 63.09847158900726 33.93533781413589 64.40186820970877 H 0.0 **** 0.06
33826 C 6.029655330516448 77.88732673309784 24.74577884741631 C 0.0 **** -0.24
33827 H 5.239454625251199 77.72076022096252 25.477325916165054 H 0.0 **** 0.06
33828 H 5.586539399882724 78.16645629829723 23.789319381407452 H 0.0 **** 0.06
33829 H 6.610275753835737 76.97301563224738 24.62403800343395 H 0.0 **** 0.06
33830 H 6.682465399307858 78.68808411357936 25.092356848363153 H 0.0 **** 0.06
33831 C 3.61684079763846 105.7299813747266 13.551822126378283 C 0.0 **** -0.24
33832 H 2.720050755786218 106.29984851520612 13.30852236543069 H 0.0 **** 0.06
33833 H 4.429601890896194 106.03317545429758 12.89270725844952 H 0.0 **** 0.06
33834 H 3.4182320158045343 104.6662495736955 13.420929366539497 H 0.0 **** 0.06
33835 H 3.898100704426227 105.9211164591614 14.587555665735891 H 0.0 **** 0.06
33836 C 12.708622188351796 64.99539268965998 88.69024029536286 C 0.0 **** -0.24
33837 H 12.133606422130981 65.19522269036776 89.5947316293533 H 0.0 **** 0.06
33838 H 12.027254160628786 64.79024883568792 87.86481537603152 H 0.0 **** 0.06
33839 H 13.352933653692162 64.13110490074848 88.85304412023339 H 0.0 **** 0.06
33840 H 13.321028078172901 65.86526649342653 88.44971718503211 H 0.0 **** 0.06
33841 C 67.67294320319405 22.056202264109317 66.53872957043242 C 0.0 **** -0.24
33842 H 68.28629489121647 22.044501392147566 67.43913973051681 H 0.0 **** 0.06
33843 H 68.15959280322949 21.469287636568936 65.75977123222569 H 0.0 **** 0.06
33844 H 67.54999149222198 23.0842452254291 66.19680810221351 H 0.0 **** 0.06
33845 H 66.69502791480437 21.627766398905692 66.7597162972219 H 0.0 **** 0.06
33846 C 5.692696997027355 94.13089642994801 7.737731461167755 C 0.0 **** -0.24
33847 H 4.80632742368023 94.76334461186728 7.689658838998639 H 0.0 **** 0.06
33848 H 6.292731934039423 94.27828137000247 6.839711714314376 H 0.0 **** 0.06
33849 H 5.390030395475193 93.0863893580614 7.806837025173536 H 0.0 **** 0.06
33850 H 6.281060578945812 94.39768969275858 8.615768115695573 H 0.0 **** 0.06
33851 C 30.1959509530149 1.0514432445980901 0.18053964668962408 C 0.0 **** -0.24
33852 H 30.068642124957897 2.1331512473028624 0.20289823478722724 H 0.0 **** 0.06
33853 H 30.95593356613334 0.7605382315278462 0.9061927588676326 H 0.0 **** 0.06
33854 H 30.509297076327933 0.7427992497539435 -0.817011264063467 H 0.0 **** 0.06
33855 H 29.251430564843666 0.5688914942613224 0.42930599211737785 H 0.0 **** 0.06
33856 C 15.985840241494259 57.48736728307006 23.022669024150858 C 0.0 **** -0.24
33857 H 16.012583646890505 56.397405433239214 23.040437169111982 H 0.0 **** 0.06
33858 H 15.220476056388577 57.81984190565748 22.321633374860667 H 0.0 **** 0.06
33859 H 16.957309122871038 57.869291961092756 22.70776349629945 H 0.0 **** 0.06
33860 H 15.75287341815681 57.86089811242414 24.01947886308129 H 0.0 **** 0.06
33861 C 76.91241693146677 70.37344115425441 71.80357473286612 C 0.0 **** -0.24
33862 H 76.99306706101741 71.29591190096835 72.37758164208381 H 0.0 **** 0.06
33863 H 76.30503140951771 70.54936583891762 70.91578419598082 H 0.0 **** 0.06
33864 H 76.4442496611353 69.60302265262342 72.41718413554915 H 0.0 **** 0.06
33865 H 77.90720361248232 70.04272679252766 71.50497101710782 H 0.0 **** 0.06
33866 C 98.21695831001828 13.383115452743297 41.37001964986146 C 0.0 **** -0.24
33867 H 97.38864851737249 14.063449211111816 41.56806402653589 H 0.0 **** 0.06
33868 H 98.33881619048124 13.261651877125331 40.29422835503229 H 0.0 **** 0.06
33869 H 98.00728187614261 12.415191221153947 41.8243941046766 H 0.0 **** 0.06
33870 H 99.13334658347465 13.79332775106269 41.79553481527543 H 0.0 **** 0.06
33871 C 62.00428108121807 6.333250117289666 62.94619854456167 C 0.0 **** -0.24
33872 H 63.03589822662639 6.037578158276958 63.13834663083411 H 0.0 **** 0.06
33873 H 61.72661105762694 7.140315334122732 63.623907762862615 H 0.0 **** 0.06
33874 H 61.34595963506882 5.479510887338037 63.10894662480342 H 0.0 **** 0.06
33875 H 61.910460429416105 6.674532777855589 61.91574064008154 H 0.0 **** 0.06
33876 C 66.76241693892744 94.17770301276225 19.55370126837873 C 0.0 **** -0.24
33877 H 65.70398974502916 94.00825619163724 19.357407279445212 H 0.0 **** 0.06
33878 H 67.04304152882948 95.16992584055939 19.200392046953354 H 0.0 **** 0.06
33879 H 67.35339657305015 93.42457125795566 19.030338637154557 H 0.0 **** 0.06
33880 H 66.94918491363208 94.1057610165742 20.624738960332436 H 0.0 **** 0.06
33881 C 51.53578979948708 47.3237079211587 87.6920297128828 C 0.0 **** -0.24
33882 H 51.57007432398257 47.48712173240699 86.61409219872422 H 0.0 **** 0.06
33883 H 50.66240436355827 46.718953826745235 87.93979402913318 H 0.0 **** 0.06
33884 H 51.46973599331352 48.28391508057797 88.20260171000893 H 0.0 **** 0.06
33885 H 52.44005439471067 46.803916235136796 88.00979989229003 H 0.0 **** 0.06
33886 C 29.375363271510366 101.08598637583228 29.700996961247995 C 0.0 **** -0.24
33887 H 29.848365568845566 101.1360912194501 28.7205031999531 H 0.0 **** 0.06
33888 H 29.55359136658177 102.018649598046 30.237970753130526 H 0.0 **** 0.06
33889 H 29.797437068604495 100.25573093818079 30.2660768358582 H 0.0 **** 0.06
33890 H 28.302579080702884 100.93564856437813 29.57943900728486 H 0.0 **** 0.06
33891 C 57.82713488262402 26.13808001022258 83.41485259907009 C 0.0 **** -0.24
33892 H 57.839436465715096 25.112780619865077 83.04642418857588 H 0.0 **** 0.06
33893 H 58.69656484726835 26.305941373600888 84.05117551043185 H 0.0 **** 0.06
33894 H 56.917448677263735 26.306677520605547 83.98972607879716 H 0.0 **** 0.06
33895 H 57.85725857269716 26.82769151591313 82.57016074517222 H 0.0 **** 0.06
33896 C 91.31305322917547 42.49010210957488 5.0247108213194736 C 0.0 **** -0.24
33897 H 91.6391011836074 41.86518232798092 4.19288167055106 H 0.0 **** 0.06
33898 H 91.74052291933315 42.111392390498416 5.952461468483534 H 0.0 **** 0.06
33899 H 90.22493696613817 42.46980096575946 5.089205708020415 H 0.0 **** 0.06
33900 H 91.6487976996776 43.514773345639675 4.862260028365256 H 0.0 **** 0.06
33901 C 71.2832246865319 7.3198768955980995 102.71488400127109 C 0.0 **** -0.24
33902 H 71.9227785298767 6.942124313899058 103.51253967268786 H 0.0 **** 0.06
33903 H 71.8633204390114 7.973079186413258 102.0633662562262 H 0.0 **** 0.06
33904 H 70.45561488801314 7.881021057604045 103.14899800252775 H 0.0 **** 0.06
33905 H 70.89161757458854 6.48316387497141 102.13682269387753 H 0.0 **** 0.06
33906 C 58.18772417606601 33.05886992555389 10.23195939502628 C 0.0 **** -0.24
33907 H 57.29616138808049 33.55997214441816 9.855571233650835 H 0.0 **** 0.06
33908 H 57.89771418444457 32.29741849706752 10.956143519258632 H 0.0 **** 0.06
33909 H 58.83839556814999 33.789414119657934 10.714411161211757 H 0.0 **** 0.06
33910 H 58.71847241290604 32.59065193076291 9.404175102021611 H 0.0 **** 0.06
33911 C 39.77703638078347 12.809060046791 86.11967946951239 C 0.0 **** -0.24
33912 H 39.545645138149354 13.633987093740366 86.79388284392459 H 0.0 **** 0.06
33913 H 39.993068274293506 13.201660874870228 85.12558713953914 H 0.0 **** 0.06
33914 H 38.92358578877685 12.133240228369184 86.06735972594684 H 0.0 **** 0.06
33915 H 40.64651755174904 12.267983927290564 86.49296064152853 H 0.0 **** 0.06
33916 C 102.07778337503774 19.30338156721905 25.60106955601077 C 0.0 **** -0.24
33917 H 101.02653632737726 19.241997603300575 25.881918884783886 H 0.0 **** 0.06
33918 H 102.17083048817113 19.826246545928285 24.649234405908885 H 0.0 **** 0.06
33919 H 102.48850284505231 18.298251518896876 25.505493352888948 H 0.0 **** 0.06
33920 H 102.62690651156741 19.84794309690392 26.369970253984206 H 0.0 **** 0.06
33921 C 8.224750272361177 44.40000410424972 43.48400294625455 C 0.0 **** -0.24
33922 H 8.733102825220556 43.74794618951984 44.19357945303676 H 0.0 **** 0.06
33923 H 7.300432795858683 43.925961196468165 43.1530780998572 H 0.0 **** 0.06
33924 H 8.870724101030646 44.57517103953353 42.62404536785556 H 0.0 **** 0.06
33925 H 7.994750289226488 45.35096445006235 43.96430923114056 H 0.0 **** 0.06
33926 C 11.302412880081889 23.939585658841224 94.17111301647273 C 0.0 **** -0.24
33927 H 10.415126597108284 24.49264397939305 94.48189481869116 H 0.0 **** 0.06
33928 H 11.001894010215139 22.989656817399634 93.72965714401676 H 0.0 **** 0.06
33929 H 11.936327986649502 23.754255161846203 95.03757472874051 H 0.0 **** 0.06
33930 H 11.854881566565268 24.52509756213287 93.43518982815294 H 0.0 **** 0.06
33931 C 81.61831307516195 11.840061491597211 38.752633859881314 C 0.0 **** -0.24
33932 H 81.90031095077865 11.783499290204375 37.70073573084676 H 0.0 **** 0.06
33933 H 80.92206801227269 11.034192480857811 38.98544852908327 H 0.0 **** 0.06
33934 H 81.14178835737533 12.800255264297675 38.9489366758026 H 0.0 **** 0.06
33935 H 82.50928916778753 11.743186695898004 39.37255607845532 H 0.0 **** 0.06
33936 C 16.79865354188334 42.468591303989115 48.526993433961195 C 0.0 **** -0.24
33937 H 16.502640556391498 41.95130371991331 49.43935550714696 H 0.0 **** 0.06
33938 H 17.34243050990635 41.78012971450016 47.8794349442019 H 0.0 **** 0.06
33939 H 17.440269140536557 43.312627847632086 48.78075012909147 H 0.0 **** 0.06
33940 H 15.910016475709114 42.83001387893404 48.009601329906694 H 0.0 **** 0.06
33941 C 49.82054082907973 17.474483743554458 106.37452882515696 C 0.0 **** -0.24
33942 H 49.54370215680456 17.66240986139391 105.33755062232571 H 0.0 **** 0.06
33943 H 49.262764643913385 16.615317212596267 106.74915714341834 H 0.0 **** 0.06
33944 H 49.586431340027616 18.35122883025538 106.9778550049504 H 0.0 **** 0.06
33945 H 50.88907243232978 17.266754244231507 106.43366755472935 H 0.0 **** 0.06
33946 C 85.29594271443375 88.22649476735471 66.21121120868301 C 0.0 **** -0.24
33947 H 85.68419253877317 87.38640213684171 65.63360386247035 H 0.0 **** 0.06
33948 H 86.04643734331262 88.546497133523 66.93438409872601 H 0.0 **** 0.06
33949 H 84.39266177287419 87.91801692391982 66.73712816770566 H 0.0 **** 0.06
33950 H 85.06226673872919 89.05183477024806 65.53910846496629 H 0.0 **** 0.06
33951 C 97.06202517294506 64.97463426432506 23.748151924150136 C 0.0 **** -0.24
33952 H 97.68065206088754 65.06811649475623 24.64052938819131 H 0.0 **** 0.06
33953 H 96.96441578488458 65.94934902151613 23.27034521927615 H 0.0 **** 0.06
33954 H 96.07401862021763 64.60691469549499 24.028705250653758 H 0.0 **** 0.06
33955 H 97.52703869281689 64.2739638941971 23.055042883798222 H 0.0 **** 0.06
33956 C 91.51933979753184 50.44853141403297 75.75021846332885 C 0.0 **** -0.24
33957 H 92.17797659391482 50.965085566373546 75.0520250191318 H 0.0 **** 0.06
33958 H 92.05470184047269 50.25909012073981 76.68049163703529 H 0.0 **** 0.06
33959 H 91.19988653742286 49.50174320145152 75.31492385631645 H 0.0 **** 0.06
33960 H 90.6464827822316 51.068340990552315 75.9530715753823 H 0.0 **** 0.06
33961 C 62.370255874964755 14.81469247991592 23.927027073476268 C 0.0 **** -0.24
33962 H 62.50676933921662 13.783988537380694 23.600150717865404 H 0.0 **** 0.06
33963 H 61.46953916607478 14.885671997701337 24.538222711468848 H 0.0 **** 0.06
33964 H 62.27022315581033 15.461993568962967 23.055886182013353 H 0.0 **** 0.06
33965 H 63.233630177371936 15.1275265116996 24.514892215250825 H 0.0 **** 0.06
33966 C 68.47402579641525 53.69891435332809 98.36278404733565 C 0.0 **** -0.24
33967 H 68.21160127258295 52.65594722949595 98.18812549063182 H 0.0 **** 0.06
33968 H 68.46469967321028 53.90155006812532 99.43445357094467 H 0.0 **** 0.06
33969 H 67.7502075811133 54.34429892382033 97.86465788271985 H 0.0 **** 0.06
33970 H 69.46986629144911 53.894252551953144 97.9647785055383 H 0.0 **** 0.06
33971 C 29.457887004056346 6.452065271462976 39.950409097054255 C 0.0 **** -0.24
33972 H 29.665033594709428 7.177702310554244 40.736682500846165 H 0.0 **** 0.06
33973 H 29.375620794479573 6.967392535847711 38.99266129201214 H 0.0 **** 0.06
33974 H 28.520568376312326 5.938481963266655 40.16831449357227 H 0.0 **** 0.06
33975 H 30.268118654368863 5.724969836209334 39.90375535027345 H 0.0 **** 0.06
33976 C 63.211035101299345 105.93125164468327 39.27792050844761 C 0.0 **** -0.24
33977 H 63.72889910952125 106.8909020465739 39.281345334529476 H 0.0 **** 0.06
33978 H 62.16401990515891 106.08280698070237 39.54045025493325 H 0.0 **** 0.06
33979 H 63.67599743907495 105.26525204483676 40.00446730137185 H 0.0 **** 0.06
33980 H 63.27672158836988 105.48799043995768 38.283694401706555 H 0.0 **** 0.06
33981 C 76.47646015376363 1.8125807086094596 46.15431385499705 C 0.0 **** -0.24
33982 H 75.90442290820492 0.9555539736915364 45.79724758110483 H 0.0 **** 0.06
33983 H 77.3702828229472 1.46165669183506 46.67141842899949 H 0.0 **** 0.06
33984 H 75.86408727380436 2.3965931911104406 46.84120873335883 H 0.0 **** 0.06
33985 H 76.76614982045218 2.4337378090328627 45.30670282073763 H 0.0 **** 0.06
33986 C 76.61104272531858 28.612458585297787 15.487956987966015 C 0.0 **** -0.24
33987 H 76.0394334898088 28.182667952575656 16.310681493358345 H 0.0 **** 0.06
33988 H 76.39275883254001 28.065623837926665 14.569666896128652 H 0.0 **** 0.06
33989 H 77.67579350214376 28.541609128762133 15.70854441149946 H 0.0 **** 0.06
33990 H 76.33401048815105 29.65875356255836 15.361238238802073 H 0.0 **** 0.06
33991 C 15.628198695821908 30.29176615027245 33.5769855523034 C 0.0 **** -0.24
33992 H 16.249679397046947 30.274110001131135 32.68176954530384 H 0.0 **** 0.06
33993 H 15.535681558539807 31.31778102954297 33.93399225044132 H 0.0 **** 0.06
33994 H 16.089340644189704 29.676984071984975 34.35078841205171 H 0.0 **** 0.06
33995 H 14.640027240762976 29.897945156199626 33.341839107235245 H 0.0 **** 0.06
33996 C 25.003345906707295 14.856924882667386 64.76948386454092 C 0.0 **** -0.24
33997 H 25.086383210614496 13.876599664793332 65.24062403865265 H 0.0 **** 0.06
33998 H 23.960826446298533 15.174035336476777 64.77333232220191 H 0.0 **** 0.06
33999 H 25.360942260614827 14.795795171882617 63.74200409458169 H 0.0 **** 0.06
34000 H 25.60544694123193 15.576921198519074 65.32175576892215 H 0.0 **** 0.06
34001 C 75.8110741828654 27.825971426674613 55.90538185896867 C 0.0 **** -0.24
34002 H 74.78777632132241 27.78245738250277 55.532379547230676 H 0.0 **** 0.06
34003 H 75.92135909399163 28.689538411847508 56.56142226690562 H 0.0 **** 0.06
34004 H 76.50073380349644 27.917275791023627 55.065623038375236 H 0.0 **** 0.06
34005 H 76.03503514469105 26.91580740023653 56.46164765387638 H 0.0 **** 0.06
34006 C 59.12503687058834 76.09378303011312 87.97050197354574 C 0.0 **** -0.24
34007 H 58.30815649834355 75.92038779952529 87.269873494937 H 0.0 **** 0.06
34008 H 59.530174940489594 77.09404264149094 87.81511666670306 H 0.0 **** 0.06
34009 H 59.90837392739024 75.35458744728886 87.80531536173848 H 0.0 **** 0.06
34010 H 58.752314196561976 76.00688975595597 88.99134676938829 H 0.0 **** 0.06
34011 C 4.794748495019817 80.0031431340366 69.921986479551 C 0.0 **** -0.24
34012 H 5.208173483940939 79.24061521895578 69.26314538489746 H 0.0 **** 0.06
34013 H 5.331974754450982 80.94007290605379 69.7758008347986 H 0.0 **** 0.06
34014 H 4.897779246872744 79.68228098030819 70.95807856112349 H 0.0 **** 0.06
34015 H 3.7389578168513964 80.14892955279389 69.6906055492326 H 0.0 **** 0.06
34016 C 8.668338587379893 7.442474494916098 32.18129271820382 C 0.0 **** -0.24
34017 H 8.194374157901166 8.361231284879736 32.52626716965162 H 0.0 **** 0.06
34018 H 9.508982325802904 7.688519248247189 31.53229594922533 H 0.0 **** 0.06
34019 H 7.943121469866114 6.845506609927739 31.627613912938727 H 0.0 **** 0.06
34020 H 9.026496122536727 6.873685900205743 33.0399652218172 H 0.0 **** 0.06
34021 C 105.77303299902854 31.564653945357136 43.67732356428138 C 0.0 **** -0.24
34022 H 106.197901349825 32.49294252739526 43.29370531684225 H 0.0 **** 0.06
34023 H 106.42902173189736 31.156194691569908 44.44610606375164 H 0.0 **** 0.06
34024 H 105.67488526583597 30.846762674765912 42.86362164851408 H 0.0 **** 0.06
34025 H 104.79167667950597 31.764674317769874 44.10643927229603 H 0.0 **** 0.06
34026 C 53.11483929674853 7.004766624232786 81.43156708248804 C 0.0 **** -0.24
34027 H 52.87237884629474 5.948630297932823 81.55291672573716 H 0.0 **** 0.06
34028 H 53.92167517637614 7.27175894959322 82.11536730869418 H 0.0 **** 0.06
34029 H 52.23497253777742 7.6079729814837265 81.65366897300504 H 0.0 **** 0.06
34030 H 53.4319115417901 7.189186932416419 80.40541016325486 H 0.0 **** 0.06
34031 C 47.765725661725526 10.7671139295707 103.19512652739553 C 0.0 **** -0.24
34032 H 48.030834605779035 11.25936368178407 102.25898221377514 H 0.0 **** 0.06
34033 H 47.8365725311686 9.686480133216538 103.07066354215152 H 0.0 **** 0.06
34034 H 46.74669962175483 11.035801916805939 103.470317954189 H 0.0 **** 0.06
34035 H 48.451438552306456 11.088229920890246 103.98056535832023 H 0.0 **** 0.06
34036 C 104.53656031159161 96.18633701167138 9.704101632040079 C 0.0 **** -0.24
34037 H 104.71672729231722 96.78366429759893 10.597510076842894 H 0.0 **** 0.06
34038 H 103.74861685000639 95.46020088297607 9.904404248088795 H 0.0 **** 0.06
34039 H 105.45179016352324 95.66371836261479 9.42675031238906 H 0.0 **** 0.06
34040 H 104.22997803966874 96.83961501586654 8.886393904739947 H 0.0 **** 0.06
34041 C 43.20482949976173 30.13328494245036 5.195041871175107 C 0.0 **** -0.24
34042 H 42.42904973247306 30.655593350811216 4.636694033570336 H 0.0 **** 0.06
34043 H 44.0918454784499 30.763559540932874 5.261639984155295 H 0.0 **** 0.06
34044 H 43.45613123911187 29.203627017808344 4.684559470009248 H 0.0 **** 0.06
34045 H 42.841846056193106 29.909231431382125 6.198510250412085 H 0.0 **** 0.06
34046 C 21.7613701890794 59.53988519931838 57.01793338242021 C 0.0 **** -0.24
34047 H 22.769145092845633 59.72304024673275 57.39348201504288 H 0.0 **** 0.06
34048 H 21.36162075189401 60.459814928674945 56.59151061242608 H 0.0 **** 0.06
34049 H 21.123369889078617 59.21133280372487 57.837620878643406 H 0.0 **** 0.06
34050 H 21.79554892624526 58.76700751577678 56.250381047789006 H 0.0 **** 0.06
34051 C 95.2673520534239 95.18416089900927 72.7023652685989 C 0.0 **** -0.24
34052 H 95.47953542773894 94.27848490543977 72.13395526737264 H 0.0 **** 0.06
34053 H 94.82044196320146 94.91498261396455 73.6600975854929 H 0.0 **** 0.06
34054 H 94.57403521494064 95.81025711982909 72.14157390975231 H 0.0 **** 0.06
34055 H 96.1941082832654 95.7308826616748 72.87427767837812 H 0.0 **** 0.06
34056 C 73.42682207689097 25.997025133224923 92.52023982444852 C 0.0 **** -0.24
34057 H 74.41091102238227 25.531256340479047 92.55160869274256 H 0.0 **** 0.06
34058 H 72.74701182531277 25.372946284882005 91.93893234460772 H 0.0 **** 0.06
34059 H 73.50561711297689 26.98020574141762 92.05421511473158 H 0.0 **** 0.06
34060 H 73.04367303824608 26.105600445859096 93.53466917265598 H 0.0 **** 0.06
34061 C 59.901853859620246 17.303199638214473 42.49557770882578 C 0.0 **** -0.24
34062 H 59.31004533917232 17.536155105013506 41.61035506230981 H 0.0 **** 0.06
34063 H 59.399579941749124 16.52850873715643 43.074584277672336 H 0.0 **** 0.06
34064 H 60.01263328076769 18.199388275649245 43.10494991976437 H 0.0 **** 0.06
34065 H 60.88601311371815 16.947844191548263 42.19056333842125 H 0.0 **** 0.06
34066 C 6.319454114808934 11.261020636724126 37.9026583711545 C 0.0 **** -0.24
34067 H 7.3047805579754765 11.00863889193181 38.29497836800852 H 0.0 **** 0.06
34068 H 6.093715662888457 10.619941198450292 37.05013268719844 H 0.0 **** 0.06
34069 H 6.310663678599582 12.303610242932706 37.58564366495569 H 0.0 **** 0.06
34070 H 5.570218946683497 11.110440588356767 38.67920648357154 H 0.0 **** 0.06
34071 C 85.02147019355749 77.7506054609928 15.813991983063872 C 0.0 **** -0.24
34072 H 84.09099227950645 77.57650640019284 16.35308104059251 H 0.0 **** 0.06
34073 H 85.83464127922781 77.22176058824022 16.31229575107377 H 0.0 **** 0.06
34074 H 85.23899410742555 78.81897502129641 15.79880724404288 H 0.0 **** 0.06
34075 H 84.92264297761585 77.38499590569808 14.791969705673669 H 0.0 **** 0.06
34076 C 64.98334959446903 96.2440767663386 17.198945101434276 C 0.0 **** -0.24
34077 H 65.27004000601413 97.24761758872697 16.884456410117338 H 0.0 **** 0.06
34078 H 65.65679701068281 95.51630939865237 16.746330540947156 H 0.0 **** 0.06
34079 H 63.96145133103171 96.04205758381181 16.878753168841797 H 0.0 **** 0.06
34080 H 65.04536069923526 96.17267710827478 18.28439817513228 H 0.0 **** 0.06
34081 C 37.80128386464045 38.769931528558146 79.65364939636254 C 0.0 **** -0.24
34082 H 37.859061057059904 39.40121069555215 78.76728091265308 H 0.0 **** 0.06
34083 H 38.747088390559725 38.24410737129331 79.7870603982306 H 0.0 **** 0.06
34084 H 36.99651541432378 38.04529228395822 79.53082268194464 H 0.0 **** 0.06
34085 H 37.60223237152411 39.38908317289321 80.52771827200888 H 0.0 **** 0.06
34086 C 37.450771028911504 80.52306915683701 11.771044408533342 C 0.0 **** -0.24
34087 H 38.30060315866666 79.95946572729943 12.15542210042689 H 0.0 **** 0.06
34088 H 36.580647858318 80.34433050320357 12.403858705177498 H 0.0 **** 0.06
34089 H 37.23185364049459 80.20024422382585 10.75229270467129 H 0.0 **** 0.06
34090 H 37.68938672307894 81.58669600840113 11.771474193658008 H 0.0 **** 0.06
34091 C 96.95756602973333 56.02006039870984 90.33273689954797 C 0.0 **** -0.24
34092 H 97.8792950429661 56.527750943576585 90.6148496247369 H 0.0 **** 0.06
34093 H 96.38856657088827 56.6523729177896 89.64980770307784 H 0.0 **** 0.06
34094 H 96.36331965906906 55.82311796291397 91.22564489353618 H 0.0 **** 0.06
34095 H 97.19673938639721 55.077683459124295 89.84044278543621 H 0.0 **** 0.06
34096 C 71.64346259439861 71.78842303285484 20.541474629119847 C 0.0 **** -0.24
34097 H 71.20931249003223 71.85904284864088 21.539065357559878 H 0.0 **** 0.06
34098 H 71.26895039323222 72.6051419336437 19.923876390923652 H 0.0 **** 0.06
34099 H 71.3660662263762 70.83490652885553 20.091169980721133 H 0.0 **** 0.06
34100 H 72.7297550467606 71.85448570899604 20.613176819273747 H 0.0 **** 0.06
34101 C 65.89226558680932 15.62580761926958 52.04155460580782 C 0.0 **** -0.24
34102 H 66.92816592221209 15.779582149776942 51.740949299845596 H 0.0 **** 0.06
34103 H 65.73916875309371 16.03660061126166 53.03944998062519 H 0.0 **** 0.06
34104 H 65.6704265419479 14.558385586731191 52.04994365538326 H 0.0 **** 0.06
34105 H 65.23058736164805 16.128267881676834 51.33645440845646 H 0.0 **** 0.06
34106 C 48.616957546774024 72.62209025258593 36.31511425926061 C 0.0 **** -0.24
34107 H 48.3154616014703 73.07713388273314 37.25915199480431 H 0.0 **** 0.06
34108 H 48.11097170181101 73.12610117372353 35.49209543117058 H 0.0 **** 0.06
34109 H 48.34550003808752 71.56639907122533 36.319071760043585 H 0.0 **** 0.06
34110 H 49.69549120957404 72.71953690858808 36.19316766583546 H 0.0 **** 0.06
34111 C 28.8872545283688 53.73256797066725 75.3352741472383 C 0.0 **** -0.24
34112 H 27.8253211235818 53.514784204491065 75.23114305523774 H 0.0 **** 0.06
34113 H 29.149735705771917 53.76219422368254 76.39343608539963 H 0.0 **** 0.06
34114 H 29.107280090037136 54.69739201711528 74.87830913830163 H 0.0 **** 0.06
34115 H 29.468359586716957 52.955765864591655 74.83861421189135 H 0.0 **** 0.06
34116 C 66.98649200675712 63.62653302691449 93.10311893748658 C 0.0 **** -0.24
34117 H 65.98533097176576 63.741258013273026 93.5192481144749 H 0.0 **** 0.06
34118 H 66.96911621413668 62.87125281101031 92.31788995864784 H 0.0 **** 0.06
34119 H 67.67424056612788 63.31818544886235 93.89009566237362 H 0.0 **** 0.06
34120 H 67.31689799539552 64.57869359338966 92.68475071420477 H 0.0 **** 0.06
34121 C 1.2946069269235068 7.52407815406707 74.18798365117705 C 0.0 **** -0.24
34122 H 1.2796898816903877 8.015300557394028 73.2148142098565 H 0.0 **** 0.06
34123 H 1.1310054402733272 8.265609285513506 74.97073258821929 H 0.0 **** 0.06
34124 H 2.262674439550665 7.0452765916878946 74.33759011387296 H 0.0 **** 0.06
34125 H 0.506637439031806 6.772094241965021 74.22717523923232 H 0.0 **** 0.06
34126 C 93.38973661612398 86.51835976981795 2.2663765897208776 C 0.0 **** -0.24
34127 H 92.87177665767814 86.28729477520312 1.335109068968464 H 0.0 **** 0.06
34128 H 93.02369747486952 85.86319814768132 3.0577869573245664 H 0.0 **** 0.06
34129 H 93.2029846287489 87.55642629977206 2.538432111297695 H 0.0 **** 0.06
34130 H 94.46128882403255 86.36460867058639 2.1333381001038134 H 0.0 **** 0.06
34131 C 70.12627272230023 11.240079503398306 49.8211687578203 C 0.0 **** -0.24
34132 H 70.68002147301931 12.164073722192882 49.99005851456397 H 0.0 **** 0.06
34133 H 69.09299633105024 11.477427461151322 49.56716369410366 H 0.0 **** 0.06
34134 H 70.14828641064742 10.632964362125506 50.725975529313445 H 0.0 **** 0.06
34135 H 70.5849190710534 10.687639600109762 49.000753368225844 H 0.0 **** 0.06
34136 C 12.249941161183358 76.24514467700789 14.723120060552617 C 0.0 **** -0.24
34137 H 12.105924465820038 75.35312642282456 14.114160871004827 H 0.0 **** 0.06
34138 H 13.188550888000975 76.16131676388835 15.273043215351066 H 0.0 **** 0.06
34139 H 11.42352360360917 76.34222140708157 15.427180310628586 H 0.0 **** 0.06
34140 H 12.28381479268856 77.12311691064829 14.078503109021796 H 0.0 **** 0.06
34141 C 95.81657701047311 42.67210518757114 105.62863545365309 C 0.0 **** -0.24
34142 H 96.04171595204377 42.2412756298597 106.60469800173792 H 0.0 **** 0.06
34143 H 96.5022809419846 42.26423824505915 104.8859064405587 H 0.0 **** 0.06
34144 H 95.9316707744473 43.75430285005307 105.67464935386391 H 0.0 **** 0.06
34145 H 94.7915409356807 42.42647460889171 105.35186777151972 H 0.0 **** 0.06
34146 C 56.24570409987559 88.42007554255662 12.37854462052209 C 0.0 **** -0.24
34147 H 56.6139999356957 89.18388586134785 11.694313197033907 H 0.0 **** 0.06
34148 H 56.3094981489122 87.44214787475119 11.900871588758074 H 0.0 **** 0.06
34149 H 55.2073452652142 88.63228984129739 12.63334205211802 H 0.0 **** 0.06
34150 H 56.850005386831164 88.42283207901181 13.285019113949975 H 0.0 **** 0.06
34151 C 74.63509660303197 51.43225930727931 106.68716051661197 C 0.0 **** -0.24
34152 H 74.1086654253283 50.66388130740245 107.25346359602912 H 0.0 **** 0.06
34153 H 74.13336314106846 52.39123863855531 106.82467045508429 H 0.0 **** 0.06
34154 H 74.63360965689736 51.16928501950639 105.62987390927813 H 0.0 **** 0.06
34155 H 75.66223697805083 51.50612405864962 107.04297269810375 H 0.0 **** 0.06
34156 C 44.11999519349797 53.87436309421361 96.1307562586326 C 0.0 **** -0.24
34157 H 45.18766357743584 53.99676335572519 96.31197184390615 H 0.0 **** 0.06
34158 H 43.8812829225306 52.81208524594717 96.07016766685561 H 0.0 **** 0.06
34159 H 43.852659125878176 54.36208636501283 95.19404654699596 H 0.0 **** 0.06
34160 H 43.5596687807477 54.3271535059186 96.94965364502568 H 0.0 **** 0.06
34161 C 95.17643808872643 66.50903453765486 48.41488610501971 C 0.0 **** -0.24
34162 H 95.76939940375402 66.82975085561972 47.55840865316025 H 0.0 **** 0.06
34163 H 95.84190773158078 66.22067632672294 49.22889558122009 H 0.0 **** 0.06
34164 H 94.55858335135584 65.65745217416817 48.131105063033495 H 0.0 **** 0.06
34165 H 94.5368615001809 67.3296707784487 48.74121982390098 H 0.0 **** 0.06
34166 C 72.08266690354625 89.3673226921109 7.753590185938236 C 0.0 **** -0.24
34167 H 71.83198623302715 89.64034524563895 6.72828895312459 H 0.0 **** 0.06
34168 H 73.06716353457861 88.89869662751829 7.774368933824562 H 0.0 **** 0.06
34169 H 71.33825058161207 88.66770476949145 8.13402128429155 H 0.0 **** 0.06
34170 H 72.09220078413372 90.26178534238778 8.37586853731888 H 0.0 **** 0.06
34171 C 50.64551979594155 26.39718630007647 11.076871358192506 C 0.0 **** -0.24
34172 H 49.55898387940561 26.330911286998315 11.017381443833187 H 0.0 **** 0.06
34173 H 51.06139817812332 26.457333644926734 10.071897177567337 H 0.0 **** 0.06
34174 H 51.03540338662478 25.511963584526512 11.58031478305999 H 0.0 **** 0.06
34175 H 50.924630085011216 27.287257827693992 11.640989999413648 H 0.0 **** 0.06
34176 C 65.44570967619015 22.831305829620078 39.26199119953094 C 0.0 **** -0.24
34177 H 64.78728095241291 21.976643640468126 39.10466067406509 H 0.0 **** 0.06
34178 H 65.21431148198172 23.60667724998541 38.53107001061079 H 0.0 **** 0.06
34179 H 66.48215723425757 22.51817266726175 39.14334589325301 H 0.0 **** 0.06
34180 H 65.29720604415529 23.223357969905294 40.26774090023059 H 0.0 **** 0.06
34181 C 64.0266454356188 85.2038262314501 30.533789443524604 C 0.0 **** -0.24
34182 H 64.32390818905421 85.48447523118861 31.544733432703843 H 0.0 **** 0.06
34183 H 63.27295983696686 84.41805449148629 30.58232279284426 H 0.0 **** 0.06
34184 H 64.89713659897953 84.8407119562407 29.98743162539178 H 0.0 **** 0.06
34185 H 63.613214432930505 86.07338762927213 30.023285311224036 H 0.0 **** 0.06
34186 C 40.144843062838504 60.22239780106973 74.4029565186658 C 0.0 **** -0.24
34187 H 40.79050645737601 59.55613219141709 74.97607838956554 H 0.0 **** 0.06
34188 H 40.75653222301651 60.86193853732942 73.76696697093925 H 0.0 **** 0.06
34189 H 39.56179903976252 60.838551616022855 75.08674143132157 H 0.0 **** 0.06
34190 H 39.47170234364356 59.63004428651177 73.7830802407627 H 0.0 **** 0.06
34191 C 66.18047299299678 2.0983177702028115 17.04383038164998 C 0.0 **** -0.24
34192 H 66.060393279687 2.6916464281244714 16.13653564217171 H 0.0 **** 0.06
34193 H 65.3854803726805 1.3542572439533558 17.098101887913312 H 0.0 **** 0.06
34194 H 66.12912544131761 2.7508291980004174 17.914559330598976 H 0.0 **** 0.06
34195 H 67.14779093487024 1.595792410028082 17.02336102879438 H 0.0 **** 0.06
34196 C 83.05890644719112 12.308117056771096 42.41877486391302 C 0.0 **** -0.24
34197 H 82.63947682892507 11.508656579370324 41.808390209945124 H 0.0 **** 0.06
34198 H 82.38582570644797 13.165449955363044 42.407669536305235 H 0.0 **** 0.06
34199 H 84.02843235494124 12.602172162522663 42.01582716371897 H 0.0 **** 0.06
34200 H 83.18351210521173 11.956788989075278 43.443100852392384 H 0.0 **** 0.06
34201 C 8.63556603367222 64.53272056624371 20.802672537572217 C 0.0 **** -0.24
34202 H 9.378220510916108 64.61734806211877 20.009051569222663 H 0.0 **** 0.06
34203 H 8.22304910014023 63.523835006630975 20.808002823290174 H 0.0 **** 0.06
34204 H 7.834969374718398 65.2514621888921 20.62878705228029 H 0.0 **** 0.06
34205 H 9.10683847628897 64.73818191114117 21.76426947407464 H 0.0 **** 0.06
34206 C 56.8825588694823 30.365173693358557 26.01259509238622 C 0.0 **** -0.24
34207 H 56.733513347632595 29.999295618661662 27.028837882114487 H 0.0 **** 0.06
34208 H 56.345368898288314 31.305078831655223 25.883723077754638 H 0.0 **** 0.06
34209 H 56.50448495518651 29.62985409445426 25.30241067605897 H 0.0 **** 0.06
34210 H 57.94563431103618 30.5273882714097 25.83731331806041 H 0.0 **** 0.06
34211 C 49.385364641210415 42.04080342756852 36.474557167726914 C 0.0 **** -0.24
34212 H 48.87636916154293 41.76646174220399 35.55086840913532 H 0.0 **** 0.06
34213 H 49.28917878770146 41.228346109729316 37.19654415564196 H 0.0 **** 0.06
34214 H 48.93553663423468 42.9455962013889 36.88318108001113 H 0.0 **** 0.06
34215 H 50.44126407447873 42.22005453325549 36.268420800956676 H 0.0 **** 0.06
34216 C 102.67574354706232 68.35693515425265 6.451289602599729 C 0.0 **** -0.24
34217 H 102.41174180430107 69.38125874552675 6.71579669920709 H 0.0 **** 0.06
34218 H 103.63223753329152 68.35151085191853 5.92842676454751 H 0.0 **** 0.06
34219 H 101.90414423680005 67.93883396495016 5.804626925140042 H 0.0 **** 0.06
34220 H 102.75398187851295 67.75636152849602 7.358356225746832 H 0.0 **** 0.06
34221 C 104.97353239754788 26.460906586091674 10.176878653906195 C 0.0 **** -0.24
34222 H 104.65146839339437 26.33465202647451 9.143596874617506 H 0.0 **** 0.06
34223 H 104.67188812448762 27.445991838132635 10.533235916288698 H 0.0 **** 0.06
34224 H 106.05869217267737 26.3710173956164 10.231622861794937 H 0.0 **** 0.06
34225 H 104.51371412091417 25.69194971542287 10.797531683549549 H 0.0 **** 0.06
34226 C 5.665734705793005 84.12329868054803 31.357008581445655 C 0.0 **** -0.24
34227 H 5.938127396634631 83.07691042091173 31.21715663777192 H 0.0 **** 0.06
34228 H 5.140015997536091 84.48277002957411 30.471512692142397 H 0.0 **** 0.06
34229 H 6.567741967945231 84.71560828378807 31.509323778522713 H 0.0 **** 0.06
34230 H 5.017005882478552 84.21722237248616 32.227912688168175 H 0.0 **** 0.06
34231 C 90.39228159041826 9.384962131972477 4.080558020561431 C 0.0 **** -0.24
34232 H 91.03787719655513 10.257261763529716 4.17795068544788 H 0.0 **** 0.06
34233 H 90.26344247925518 8.91774320363366 5.0572911982824085 H 0.0 **** 0.06
34234 H 90.84647398553606 8.672549800804347 3.3928389027719463 H 0.0 **** 0.06
34235 H 89.42100635993732 9.693778137064092 3.694982117382297 H 0.0 **** 0.06
34236 C 51.58372512028791 90.24111641429255 73.81322172272746 C 0.0 **** -0.24
34237 H 51.51641461865282 89.50900352654998 74.61716243269117 H 0.0 **** 0.06
34238 H 50.58171555458458 90.49299062803107 73.46656353882446 H 0.0 **** 0.06
34239 H 52.15966212809326 89.8230274595457 72.98800546759566 H 0.0 **** 0.06
34240 H 52.07796180370636 91.14055333777424 74.18135764863058 H 0.0 **** 0.06
34241 C 101.13313710079167 89.14145889867791 72.43781651704666 C 0.0 **** -0.24
34242 H 100.1424841126411 89.0091182560908 72.8728651602828 H 0.0 **** 0.06
34243 H 101.10854985613045 88.85160130408292 71.38679948447044 H 0.0 **** 0.06
34244 H 101.85049371073178 88.51711689546164 72.97085899612698 H 0.0 **** 0.06
34245 H 101.42956205230253 90.18727523266375 72.52015219386833 H 0.0 **** 0.06
34246 C 30.42789482993399 29.27889314032626 66.56846789220955 C 0.0 **** -0.24
34247 H 29.721240186961893 30.09735605147398 66.4355004842368 H 0.0 **** 0.06
34248 H 30.29527321753524 28.841512599469894 67.55845603227408 H 0.0 **** 0.06
34249 H 31.446243132057674 29.657432835245032 66.47139463118663 H 0.0 **** 0.06
34250 H 30.250634541606814 28.517978551613993 65.80749709778473 H 0.0 **** 0.06
34251 C 73.51719969771287 28.459226478410777 26.687242648874317 C 0.0 **** -0.24
34252 H 73.93976257823314 27.770380264076096 27.417986902406312 H 0.0 **** 0.06
34253 H 73.8027763278412 29.479474812192606 26.94148463367047 H 0.0 **** 0.06
34254 H 72.42982520049961 28.372734531071917 26.693212228692047 H 0.0 **** 0.06
34255 H 73.89513858367746 28.211982589038687 25.69459144067072 H 0.0 **** 0.06
34256 C 15.204360820498835 106.54155926835506 102.13914775022188 C 0.0 **** -0.24
34257 H 14.62131291291297 105.71763792945669 101.72685112978974 H 0.0 **** 0.06
34258 H 14.53173094857425 107.33928319331781 102.45673927067736 H 0.0 **** 0.06
34259 H 15.885016530478254 106.92181254761593 101.3773892858567 H 0.0 **** 0.06
34260 H 15.778742969228858 106.18702535881735 102.9950096326317 H 0.0 **** 0.06
34261 C 55.27082991075639 95.01394230916416 2.162048907986872 C 0.0 **** -0.24
34262 H 54.672439948909584 95.5260157177493 1.408757484796567 H 0.0 **** 0.06
34263 H 56.10092371429039 94.49951911857026 1.6778312214647144 H 0.0 **** 0.06
34264 H 54.64942457098533 94.28887222836232 2.6874415991954805 H 0.0 **** 0.06
34265 H 55.65951355854901 95.74234374205622 2.8741409737647388 H 0.0 **** 0.06
34266 C 78.65073735997976 103.60278293499844 99.59338848913971 C 0.0 **** -0.24
34267 H 77.78321459727516 104.08122748618388 99.13822829613642 H 0.0 **** 0.06
34268 H 78.3161629850386 102.8415849465064 100.29957076529719 H 0.0 **** 0.06
34269 H 79.24352278863648 104.35126113362568 100.11913892953626 H 0.0 **** 0.06
34270 H 79.25790672457447 103.13741254074523 98.8171498332863 H 0.0 **** 0.06
34271 C 53.907682905998115 19.697610081682882 33.04370839037065 C 0.0 **** -0.24
34272 H 53.86613687579461 20.779990963891635 32.92119198795012 H 0.0 **** 0.06
34273 H 52.91184553304413 19.321147583660775 33.27986018745656 H 0.0 **** 0.06
34274 H 54.59187209724189 19.44951905075584 33.85599082957892 H 0.0 **** 0.06
34275 H 54.25961255144114 19.24066409304416 32.11941052510346 H 0.0 **** 0.06
34276 C 28.707862992937322 46.33711916480638 90.37896258930323 C 0.0 **** -0.24
34277 H 29.296356395384066 46.37172890555951 89.46226995997876 H 0.0 **** 0.06
34278 H 28.046537763275722 45.47090691757539 90.35333055498376 H 0.0 **** 0.06
34279 H 28.113006709755012 47.2470189889254 90.46390998748177 H 0.0 **** 0.06
34280 H 29.376553328514063 46.25956675391568 91.2370037453615 H 0.0 **** 0.06
34281 C 97.72590364363599 76.95596210099032 101.40841475580265 C 0.0 **** -0.24
34282 H 97.76309930438555 76.10870007673245 102.09320615156682 H 0.0 **** 0.06
34283 H 98.20396171200747 77.81912489309502 101.87199991863395 H 0.0 **** 0.06
34284 H 96.6865695158337 77.19423570595654 101.18233961983492 H 0.0 **** 0.06
34285 H 98.24872739760218 76.70209764295302 100.48668332351525 H 0.0 **** 0.06
34286 C 54.92587192222069 12.139063898278437 75.38169462258575 C 0.0 **** -0.24
34287 H 53.91801227618577 12.531679522792558 75.5171369364631 H 0.0 **** 0.06
34288 H 55.454772307410124 12.161330304021646 76.33420355664524 H 0.0 **** 0.06
34289 H 55.458829177006635 12.752243385834731 74.65506116307427 H 0.0 **** 0.06
34290 H 54.869307023360996 11.112680087736976 75.01960433307521 H 0.0 **** 0.06
34291 C 35.34213913322614 52.18729422911866 52.20779863624756 C 0.0 **** -0.24
34292 H 34.764893654930894 52.057835998385656 53.12393398955243 H 0.0 **** 0.06
34293 H 36.31544130522882 51.7094023028809 52.32210929442505 H 0.0 **** 0.06
34294 H 35.48002171403239 53.2504397156149 52.01380966401547 H 0.0 **** 0.06
34295 H 34.80789072140142 51.73141886930517 51.37448778353922 H 0.0 **** 0.06
34296 C 65.20136477111792 101.64514847006504 21.41020958796102 C 0.0 **** -0.24
34297 H 64.54801911585768 100.8835117913404 21.836646879656257 H 0.0 **** 0.06
34298 H 66.24173646982786 101.37091570167183 21.589184150092535 H 0.0 **** 0.06
34299 H 64.99239255080956 102.60637458233387 21.88038371155261 H 0.0 **** 0.06
34300 H 65.02341207268822 101.71753420140833 20.337605832009075 H 0.0 **** 0.06
34301 C 50.94343671830339 6.30061268160415 106.55344964741626 C 0.0 **** -0.24
34302 H 50.569883803457174 5.454687389929006 107.13099735554187 H 0.0 **** 0.06
34303 H 51.57670545382814 5.935484850156115 105.74393611801463 H 0.0 **** 0.06
34304 H 51.523851077154205 6.954777164661266 107.20273204289943 H 0.0 **** 0.06
34305 H 50.10293655324139 6.853919677560498 106.13594456644198 H 0.0 **** 0.06
34306 C 1.1946840171425173 73.8645527970317 40.31700163155533 C 0.0 **** -0.24
34307 H 2.2512905959095804 73.73963790932581 40.07709626762363 H 0.0 **** 0.06
34308 H 0.8237474950364776 72.9622698906162 40.803167610345824 H 0.0 **** 0.06
34309 H 0.6332897146789529 74.03999648342267 39.399092771333954 H 0.0 **** 0.06
34310 H 1.0727450012863295 74.71532609429272 40.98628805191956 H 0.0 **** 0.06
34311 C 33.19476566688431 91.17163925670626 78.50804559104537 C 0.0 **** -0.24
34312 H 33.519841392297906 90.2270350371998 78.94582797726062 H 0.0 **** 0.06
34313 H 32.41811824852684 91.61310253858755 79.13322852702436 H 0.0 **** 0.06
34314 H 32.79976281468393 90.99220328604966 77.50889989924951 H 0.0 **** 0.06
34315 H 34.0432602865279 91.85343677719486 78.44639535757213 H 0.0 **** 0.06
34316 C 80.07201873413273 54.287920376253226 28.958703598795807 C 0.0 **** -0.24
34317 H 80.31057200380653 54.36274093609666 30.0202044152295 H 0.0 **** 0.06
34318 H 80.4500254074935 53.34314886944941 28.567293981057816 H 0.0 **** 0.06
34319 H 80.53643623262982 55.115965966712054 28.423684374075464 H 0.0 **** 0.06
34320 H 78.99149303341261 54.329552813166345 28.826906063958177 H 0.0 **** 0.06
34321 C 72.87745321701813 66.6431189947192 67.43602423835159 C 0.0 **** -0.24
34322 H 73.08540060343361 66.32784978950383 68.45776238981176 H 0.0 **** 0.06
34323 H 72.78626670527655 67.72872860965992 67.40214965988065 H 0.0 **** 0.06
34324 H 71.94586522094109 66.18894343247877 67.09834232563159 H 0.0 **** 0.06
34325 H 73.69268858952222 66.32586328189075 66.78456059446839 H 0.0 **** 0.06
34326 C 0.38809722389950485 0.6312236903098665 100.63212324211787 C 0.0 **** -0.24
34327 H 0.6754630841366005 0.5749755255928335 101.68264348009092 H 0.0 **** 0.06
34328 H 0.597462250933738 -0.32216159294480917 100.1470990253406 H 0.0 **** 0.06
34329 H 0.9569040242247242 1.420758306620911 100.14266482109736 H 0.0 **** 0.06
34330 H -0.6767903402984623 0.8494432127030507 100.55909332125862 H 0.0 **** 0.06
34331 C 101.109281397606 75.10189585448651 86.48033889924947 C 0.0 **** -0.24
34332 H 101.61516670996745 75.54629211485361 85.6231033837332 H 0.0 **** 0.06
34333 H 101.81943291571966 74.97963224761278 87.29796480635844 H 0.0 **** 0.06
34334 H 100.70452002883549 74.13010188196513 86.19958034159237 H 0.0 **** 0.06
34335 H 100.2969326623001 75.75502559535074 86.79980220156027 H 0.0 **** 0.06
34336 C 35.488294279992125 44.753617853689 11.223720477048033 C 0.0 **** -0.24
34337 H 35.99160602315188 44.05283225135074 11.889038061746238 H 0.0 **** 0.06
34338 H 34.71121198936411 44.230676906857525 10.666036339093717 H 0.0 **** 0.06
34339 H 36.21316500501371 45.17713377173314 10.527445046259837 H 0.0 **** 0.06
34340 H 35.03949738046284 45.554530507628456 11.811912627121233 H 0.0 **** 0.06
34341 C 6.424519351895583 81.95896910242783 35.64810678623314 C 0.0 **** -0.24
34342 H 6.141372480890823 82.34772068917624 34.670637759597426 H 0.0 **** 0.06
34343 H 5.5753539377588766 81.44059322136849 36.093259845220246 H 0.0 **** 0.06
34344 H 6.725841124619819 82.7837876909237 36.29405508519142 H 0.0 **** 0.06
34345 H 7.256526880554901 81.26425002098915 35.53533465426358 H 0.0 **** 0.06
34346 C 59.681206972907034 79.28142101781322 2.1284738387627584 C 0.0 **** -0.24
34347 H 58.625555798354725 79.12351155769448 1.9094558701909676 H 0.0 **** 0.06
34348 H 59.88980772120698 80.35133899291463 2.161610200442013 H 0.0 **** 0.06
34349 H 60.28710444753699 78.81720699244755 1.3512620079521724 H 0.0 **** 0.06
34350 H 59.92223488971317 78.8344711190042 3.093633979855909 H 0.0 **** 0.06
34351 C 20.65002137657425 19.88223125890275 90.3667545641081 C 0.0 **** -0.24
34352 H 20.163818155602524 19.148954643639883 91.00994079350895 H 0.0 **** 0.06
34353 H 20.93431333721661 19.408722268263688 89.42702267395404 H 0.0 **** 0.06
34354 H 21.541552529395133 20.266182068513615 90.86419879216476 H 0.0 **** 0.06
34355 H 19.962480685469757 20.704216969646268 90.16784506436468 H 0.0 **** 0.06
34356 C 4.94750608605051 28.258873716316486 105.10628194856096 C 0.0 **** -0.24
34357 H 5.909153758374657 27.745441095704848 105.08871969867523 H 0.0 **** 0.06
34358 H 5.022068920096785 29.1890174455354 104.54218995961357 H 0.0 **** 0.06
34359 H 4.67215975851235 28.479911729540646 106.13758321925937 H 0.0 **** 0.06
34360 H 4.1871908455509015 27.620427690322742 104.65553351604595 H 0.0 **** 0.06
34361 C 37.82196349010768 28.550499347153988 56.417094246166556 C 0.0 **** -0.24
34362 H 36.99758394972219 28.295151228130322 55.75109992915307 H 0.0 **** 0.06
34363 H 38.694136616955426 27.947864283125213 56.16215551227771 H 0.0 **** 0.06
34364 H 37.53089796631402 28.352011607941776 57.44837508327194 H 0.0 **** 0.06
34365 H 38.064561845227715 29.607398479305374 56.30465764366264 H 0.0 **** 0.06
34366 C 44.415413781604116 60.8615609062535 55.557333535625915 C 0.0 **** -0.24
34367 H 45.44674625472709 60.84072211889523 55.20329562391018 H 0.0 **** 0.06
34368 H 44.25330239940553 60.03645988810418 56.25133998023807 H 0.0 **** 0.06
34369 H 43.73863940836975 60.76175376813326 54.708499801224356 H 0.0 **** 0.06
34370 H 44.224296085264086 61.80655181516977 56.06456706804547 H 0.0 **** 0.06
34371 C 50.918057012952346 36.04914174058166 94.6760332638716 C 0.0 **** -0.24
34372 H 51.96574011555964 35.8029470101778 94.8490303218121 H 0.0 **** 0.06
34373 H 50.82665782466577 37.112349090508275 94.45133106146164 H 0.0 **** 0.06
34374 H 50.338122762045714 35.81571589748489 95.56882234175796 H 0.0 **** 0.06
34375 H 50.54200019056876 35.46518727841732 93.83583199538327 H 0.0 **** 0.06
34376 C 58.66715565389147 91.48149860267392 89.73007232662901 C 0.0 **** -0.24
34377 H 59.19317502427196 90.82576235155824 90.42443054199934 H 0.0 **** 0.06
34378 H 59.39327088687706 92.05776028704278 89.15545078885945 H 0.0 **** 0.06
34379 H 58.02232308840552 92.16056208838557 90.28802882941557 H 0.0 **** 0.06
34380 H 58.06144130356974 90.88083247511511 89.05123062540991 H 0.0 **** 0.06
34381 C 54.997686285741 54.052407873753054 4.933792456120727 C 0.0 **** -0.24
34382 H 55.48948725644511 54.417727544348736 4.031896076105255 H 0.0 **** 0.06
34383 H 55.30377978815328 53.02346340994836 5.122865903499587 H 0.0 **** 0.06
34384 H 53.91638258716245 54.09122801920239 4.797425043913677 H 0.0 **** 0.06
34385 H 55.27979142890051 54.6774556127524 5.779942935420422 H 0.0 **** 0.06
34386 C 93.85685493525598 85.69957028207642 21.10349923359061 C 0.0 **** -0.24
34387 H 93.876983437108 86.66723399463723 21.606372539485392 H 0.0 **** 0.06
34388 H 92.82721156140475 85.34742909712625 21.036120871116083 H 0.0 **** 0.06
34389 H 94.45012174905983 84.98356168812137 21.670923959276905 H 0.0 **** 0.06
34390 H 94.27159602929623 85.80290185633473 20.10137495764151 H 0.0 **** 0.06
34391 C 57.240016128775565 72.95673449131023 7.476772597369106 C 0.0 **** -0.24
34392 H 56.42608727601313 72.64272390825761 6.823719108948183 H 0.0 **** 0.06
34393 H 57.4930704960277 73.99613903069714 7.267762078207085 H 0.0 **** 0.06
34394 H 58.1122706480893 72.3274855074017 7.298866745127555 H 0.0 **** 0.06
34395 H 56.928280428694336 72.85983432982106 8.517293126809108 H 0.0 **** 0.06
34396 C 84.78446110894194 39.1581440260002 29.298862448639028 C 0.0 **** -0.24
34397 H 83.97683215028529 38.48690907242752 29.008602630468346 H 0.0 **** 0.06
34398 H 84.95929729400679 39.073382401968274 30.37185430648978 H 0.0 **** 0.06
34399 H 84.51101210280487 40.183935824768525 29.05472014172335 H 0.0 **** 0.06
34400 H 85.69285328219995 38.88626727116372 28.760481137733564 H 0.0 **** 0.06
34401 C 7.763049123489495 67.22221430084619 104.31313568807127 C 0.0 **** -0.24
34402 H 7.6577551364508025 66.24561351128372 103.84019932881253 H 0.0 **** 0.06
34403 H 7.40353340570681 67.1675774876127 105.34079272443756 H 0.0 **** 0.06
34404 H 7.178764962673682 67.9576910831826 103.7604896781717 H 0.0 **** 0.06
34405 H 8.813060266238963 67.51594105624045 104.31091469161146 H 0.0 **** 0.06
34406 C 37.72947393232141 3.16594734638619 80.17587427874835 C 0.0 **** -0.24
34407 H 37.26016234558182 2.342562967690327 79.63716236907521 H 0.0 **** 0.06
34408 H 38.81384606246152 3.076615601121347 80.10178860850843 H 0.0 **** 0.06
34409 H 37.43190556878912 3.1306651269215706 81.22307094770402 H 0.0 **** 0.06
34410 H 37.41164828582046 4.1130665561046555 79.73862627090013 H 0.0 **** 0.06
34411 C 73.24663043528255 72.56413355405937 79.82718651289058 C 0.0 **** -0.24
34412 H 73.69963254825456 71.57222329656452 79.84998791007976 H 0.0 **** 0.06
34413 H 72.51895230407473 72.649130191545 80.63330173126545 H 0.0 **** 0.06
34414 H 72.74811122192125 72.71311394137021 78.8694479578976 H 0.0 **** 0.06
34415 H 74.02100241514364 73.32013342465018 79.95431206118865 H 0.0 **** 0.06
34416 C 18.00577332037045 66.7758523068589 10.280275045576417 C 0.0 **** -0.24
34417 H 18.046659727812767 66.33548677750429 11.276599900537263 H 0.0 **** 0.06
34418 H 17.134103623413665 67.4278176221784 10.207728731778644 H 0.0 **** 0.06
34419 H 17.929895824975915 65.98349481823476 9.536236820257074 H 0.0 **** 0.06
34420 H 18.910597751786213 67.35712375351721 10.102623806403088 H 0.0 **** 0.06
34421 C 19.798345601816578 14.905198566424254 92.05758081319527 C 0.0 **** -0.24
34422 H 19.98512745712523 15.619234947606298 91.25499914905753 H 0.0 **** 0.06
34423 H 18.966894237812042 14.257691831228712 91.78065424195273 H 0.0 **** 0.06
34424 H 19.55275639670296 15.44350332440122 92.97217283498762 H 0.0 **** 0.06
34425 H 20.69180478898339 14.30157007461094 92.22019408757535 H 0.0 **** 0.06
34426 C 71.67177232560874 4.342565502149906 62.70397402268493 C 0.0 **** -0.24
34427 H 70.64894711789594 4.019340847877438 62.89889490238626 H 0.0 **** 0.06
34428 H 71.6569039472488 5.313285505688491 62.20755046103032 H 0.0 **** 0.06
34429 H 72.16734199589854 3.614240443790626 62.06196621590486 H 0.0 **** 0.06
34430 H 72.21232439712651 4.42462028612752 63.646470249434145 H 0.0 **** 0.06
34431 C 63.926465531013804 26.465237384433976 53.01870084078851 C 0.0 **** -0.24
34432 H 64.40304952366628 26.049808792278924 52.13012020592333 H 0.0 **** 0.06
34433 H 64.5156182335361 27.304128763681064 53.38852381393252 H 0.0 **** 0.06
34434 H 63.86312902451621 25.697139770752983 53.78905609599698 H 0.0 **** 0.06
34435 H 62.92371875349177 26.809244540371395 52.764190118372255 H 0.0 **** 0.06
34436 C 42.26074001317705 66.16858526685886 45.5309599403306 C 0.0 **** -0.24
34437 H 43.04825115986968 65.5279482708896 45.926774419151734 H 0.0 **** 0.06
34438 H 42.70157214476534 66.93825638865914 44.89720674262705 H 0.0 **** 0.06
34439 H 41.726655942811284 66.63861676433666 46.35592857130371 H 0.0 **** 0.06
34440 H 41.56583915468332 65.56852113671428 44.943161028415346 H 0.0 **** 0.06
34441 C 8.094227951653963 64.48616550578902 63.77061648212731 C 0.0 **** -0.24
34442 H 8.94989553286841 64.08193557531138 64.31137415035506 H 0.0 **** 0.06
34443 H 8.315655491412201 64.50634479806484 62.703651470273556 H 0.0 **** 0.06
34444 H 7.8906193783395935 65.49892823167119 64.11889644554337 H 0.0 **** 0.06
34445 H 7.221880925577949 63.858402793319584 63.949438465834234 H 0.0 **** 0.06
34446 C 59.123861472266924 77.11533861854551 79.65536835350113 C 0.0 **** -0.24
34447 H 60.0343421416585 77.63796343091192 79.36301421979212 H 0.0 **** 0.06
34448 H 58.79195610592319 76.47945443723717 78.83412424720427 H 0.0 **** 0.06
34449 H 58.34733861389975 77.84280680046658 79.88974189542355 H 0.0 **** 0.06
34450 H 59.32324240906502 76.50064368506827 80.53266707632855 H 0.0 **** 0.06
34451 C 62.07040131807807 11.238065958099327 91.23460272761002 C 0.0 **** -0.24
34452 H 62.88195061766538 11.640956421806692 91.84137761353969 H 0.0 **** 0.06
34453 H 61.18510813472625 11.101522704066213 91.85676724752119 H 0.0 **** 0.06
34454 H 62.37177113916604 10.278427062484894 90.81630371510369 H 0.0 **** 0.06
34455 H 61.8430269041867 11.932522922351467 90.42521891716694 H 0.0 **** 0.06
34456 C 25.66276790308575 8.273590313167688 12.915132875498074 C 0.0 **** -0.24
34457 H 24.907323179844354 8.579912653353091 13.63765521471737 H 0.0 **** 0.06
34458 H 25.88938013278988 7.215595492263446 13.052175304320201 H 0.0 **** 0.06
34459 H 26.56820344240839 8.861789679036349 13.06488835200409 H 0.0 **** 0.06
34460 H 25.28698282904088 8.436840574896593 11.904680663276963 H 0.0 **** 0.06
34461 C 63.93966766784334 76.50566910487088 20.693026521210044 C 0.0 **** -0.24
34462 H 63.550522877922276 77.50373188377269 20.8930107805499 H 0.0 **** 0.06
34463 H 64.9644888923429 76.43468027815231 21.05896477078724 H 0.0 **** 0.06
34464 H 63.92389290010851 76.31720765491424 19.61902410101436 H 0.0 **** 0.06
34465 H 63.32070482757533 75.76599891811958 21.201105980412365 H 0.0 **** 0.06
34466 C 72.05165438763979 50.74649828075109 41.96062613507405 C 0.0 **** -0.24
34467 H 72.09924575270443 50.246629720191706 42.92851622707166 H 0.0 **** 0.06
34468 H 73.05198203416865 51.06856842163334 41.668377595148904 H 0.0 **** 0.06
34469 H 71.39629755252221 51.615024191317126 42.03168881443897 H 0.0 **** 0.06
34470 H 71.65909221116377 50.05577078986239 41.21392190363675 H 0.0 **** 0.06
34471 C 65.84294395008044 2.9378634027941315 102.6785228150307 C 0.0 **** -0.24
34472 H 64.9627026407828 2.5898916305533284 102.13645762893952 H 0.0 **** 0.06
34473 H 65.55933076848498 3.755094920941713 103.34289995930476 H 0.0 **** 0.06
34474 H 66.59115511478538 3.2892790385436053 101.96932980410821 H 0.0 **** 0.06
34475 H 66.25489092757891 2.117192536460472 103.2659849277058 H 0.0 **** 0.06
34476 C 47.68332012996137 18.228642988917386 28.01802924662932 C 0.0 **** -0.24
34477 H 47.644792477061685 18.40146653533759 26.942036033083035 H 0.0 **** 0.06
34478 H 48.6909326059743 18.433775144284994 28.381749847863688 H 0.0 **** 0.06
34479 H 47.42487974537772 17.19059611907886 28.2278338755893 H 0.0 **** 0.06
34480 H 46.974215979737096 18.88804758316519 28.517310267952595 H 0.0 **** 0.06
34481 C 18.719492467823454 26.094091093831423 90.01041088769108 C 0.0 **** -0.24
34482 H 17.790949221883732 26.33412103720707 90.52957351231277 H 0.0 **** 0.06
34483 H 19.558690181032684 26.540160141024217 90.54380876360318 H 0.0 **** 0.06
34484 H 18.680739458862366 26.490289003621115 88.9949709847603 H 0.0 **** 0.06
34485 H 18.845231347463873 25.012276816693884 89.97284380815051 H 0.0 **** 0.06
34486 C 32.996975404218574 69.39878848472068 42.744101084368936 C 0.0 **** -0.24
34487 H 33.30360566509907 70.31409561731337 43.2492687721794 H 0.0 **** 0.06
34488 H 32.19761539589109 69.62407386485111 42.03777410198862 H 0.0 **** 0.06
34489 H 32.63972245535962 68.67926268399924 43.48045740794422 H 0.0 **** 0.06
34490 H 33.84772067569307 68.97668426998854 42.207745519502424 H 0.0 **** 0.06
34491 C 104.35308698060877 14.651084017533378 80.90849822742382 C 0.0 **** -0.24
34492 H 104.26110135852693 15.695916618150122 81.20646840555736 H 0.0 **** 0.06
34493 H 105.34571716581073 14.285043747225615 81.17043817181724 H 0.0 **** 0.06
34494 H 104.20751922236354 14.566913045387324 79.83169324610319 H 0.0 **** 0.06
34495 H 103.59811423894229 14.057776344577121 81.42487976943235 H 0.0 **** 0.06
34496 C 36.066900432006435 106.88540903737481 47.27250556876655 C 0.0 **** -0.24
34497 H 36.6622793700067 106.71890184314725 46.37480964045395 H 0.0 **** 0.06
34498 H 36.118852851601446 106.00377489334386 47.91109375708518 H 0.0 **** 0.06
34499 H 35.03064458933329 107.07161600647811 46.991373083438305 H 0.0 **** 0.06
34500 H 36.458046533501374 107.74922476956618 47.812021012705 H 0.0 **** 0.06
34501 C 50.72980011744772 104.45038965425499 69.2012989324605 C 0.0 **** -0.24
34502 H 51.80828324285136 104.56043775632696 69.08496621375431 H 0.0 **** 0.06
34503 H 50.46017812975697 104.60118191844242 70.24777898339434 H 0.0 **** 0.06
34504 H 50.43187642067926 103.44899506926754 68.89029399485722 H 0.0 **** 0.06
34505 H 50.220452671169454 105.19055592481286 68.5839790881005 H 0.0 **** 0.06
34506 C 85.19490328444704 62.027359998791695 13.895188076976211 C 0.0 **** -0.24
34507 H 86.20638335140386 61.96045783545932 13.494034864496484 H 0.0 **** 0.06
34508 H 85.22982254388266 61.95252259462265 14.982174612022419 H 0.0 **** 0.06
34509 H 84.59082759547152 61.21471287640898 13.493116104129172 H 0.0 **** 0.06
34510 H 84.75494276581252 62.98289827987898 13.609981071090516 H 0.0 **** 0.06
34511 C 33.221795187835795 23.96867274075737 14.979435512263734 C 0.0 **** -0.24
34512 H 33.64332324152292 24.91948735125675 14.6549230550591 H 0.0 **** 0.06
34513 H 32.61347086115984 24.12498832038102 15.87046338792127 H 0.0 **** 0.06
34514 H 34.029129402959 23.273172755378255 15.208230029967929 H 0.0 **** 0.06
34515 H 32.60128307399333 23.55584753147832 14.183369673231123 H 0.0 **** 0.06
34516 C 6.418480446146589 87.84904124239688 11.326355010035599 C 0.0 **** -0.24
34517 H 6.429489570593887 88.81265934436041 11.834669491659653 H 0.0 **** 0.06
34518 H 7.211876667173442 87.21761582553157 11.728714522420617 H 0.0 **** 0.06
34519 H 6.5795627532560275 87.99972004619295 10.25918020308957 H 0.0 **** 0.06
34520 H 5.453574368673969 87.3655365286389 11.483978716003065 H 0.0 **** 0.06
34521 C 99.50810709775378 80.95170727780473 95.93262150505566 C 0.0 **** -0.24
34522 H 98.88367203575982 81.28977683832468 95.10566169255023 H 0.0 **** 0.06
34523 H 100.52805628368614 80.7964861635748 95.57873332883503 H 0.0 **** 0.06
34524 H 99.11386627077984 80.01456842755371 96.32562233592932 H 0.0 **** 0.06
34525 H 99.50798839493528 81.70523589317663 96.72017424381849 H 0.0 **** 0.06
34526 C 48.256288192018864 72.4503314778446 60.10666669807005 C 0.0 **** -0.24
34527 H 47.89733239798413 72.26638834926615 59.09348536082765 H 0.0 **** 0.06
34528 H 47.42519905576195 72.35903850929594 60.80722949210315 H 0.0 **** 0.06
34529 H 48.67384403667144 73.45510181712206 60.166977260175365 H 0.0 **** 0.06
34530 H 49.02584019697947 71.72030495186203 60.35751463799472 H 0.0 **** 0.06
34531 C 33.384542317226135 23.45604422104914 100.85386562660389 C 0.0 **** -0.24
34532 H 33.053281580721205 22.917996454179104 99.96591314294835 H 0.0 **** 0.06
34533 H 33.54506344354917 24.50510285723817 100.60420049666033 H 0.0 **** 0.06
34534 H 34.316838012063556 23.021218959468484 101.21527463540832 H 0.0 **** 0.06
34535 H 32.62299442397557 23.37850876341443 101.63049604919597 H 0.0 **** 0.06
34536 C 90.67165172216752 99.24930280175124 53.17029253503432 C 0.0 **** -0.24
34537 H 91.47237327793015 99.91953819512469 52.85682126142075 H 0.0 **** 0.06
34538 H 91.04074072425344 98.58129801711641 53.94784161681093 H 0.0 **** 0.06
34539 H 90.33619759848828 98.66140442175168 52.3155236982509 H 0.0 **** 0.06
34540 H 89.8384117508496 99.83529023104552 53.55787682324518 H 0.0 **** 0.06
34541 C 41.833113339674696 37.73449502077389 87.69445530758205 C 0.0 **** -0.24
34542 H 41.02469620478041 38.32424909504513 88.12628926010359 H 0.0 **** 0.06
34543 H 41.49811433750705 37.29275304367465 86.75497380792307 H 0.0 **** 0.06
34544 H 42.114990268070756 36.94224378737201 88.38798186609776 H 0.0 **** 0.06
34545 H 42.69371209715621 38.37732281377498 87.50822444395465 H 0.0 **** 0.06
34546 C 81.2777620081049 30.314471887938772 55.99984231761309 C 0.0 **** -0.24
34547 H 80.35468255614964 29.737974168066977 55.94278627317482 H 0.0 **** 0.06
34548 H 81.04463838049097 31.37865530585433 55.94739422177355 H 0.0 **** 0.06
34549 H 81.9275965799552 30.04292958511462 55.1678323888506 H 0.0 **** 0.06
34550 H 81.7829468378012 30.099590242842375 56.94127253494585 H 0.0 **** 0.06
34551 C 59.43680918280256 43.12680942303564 98.29867484624242 C 0.0 **** -0.24
34552 H 59.827351948625704 44.06113235794163 97.89502435000958 H 0.0 **** 0.06
34553 H 59.9944400394279 42.85788056507067 99.19591272660034 H 0.0 **** 0.06
34554 H 59.54183470338907 42.338256818467016 97.55427435905324 H 0.0 **** 0.06
34555 H 58.383609308226 43.25295446973803 98.54977276102215 H 0.0 **** 0.06
34556 C 93.36690746167201 57.26836843118443 6.171133295152458 C 0.0 **** -0.24
34557 H 92.71185564546113 56.636777147444406 5.571349785049307 H 0.0 **** 0.06
34558 H 92.82166982788209 58.1559355967392 6.49076764284186 H 0.0 **** 0.06
34559 H 94.22922667604887 57.567306234337536 5.574292848218249 H 0.0 **** 0.06
34560 H 93.70498019261672 56.71415329581262 7.0462516195506595 H 0.0 **** 0.06
34561 C 4.954166676621696 7.89662794317076 77.80959087876711 C 0.0 **** -0.24
34562 H 5.7318224925240315 7.286023768941035 78.26921868015152 H 0.0 **** 0.06
34563 H 5.08979716115735 8.937744144978746 78.1031128547048 H 0.0 **** 0.06
34564 H 3.9760842747047604 7.548367051409853 78.14094092955233 H 0.0 **** 0.06
34565 H 5.021794305968626 7.812656988897308 76.72493236562056 H 0.0 **** 0.06
34566 C 23.732139240456817 91.10908792000131 50.0140443734318 C 0.0 **** -0.24
34567 H 24.5545128047153 90.41684180488784 50.19381570376984 H 0.0 **** 0.06
34568 H 22.784971253718297 90.60236094765634 50.19911811530312 H 0.0 **** 0.06
34569 H 23.76464712608832 91.45189438103029 48.97959442269686 H 0.0 **** 0.06
34570 H 23.823192852932735 91.96466887599286 50.68327914423671 H 0.0 **** 0.06
34571 C 69.76838976858834 97.32897534729645 37.278684063574694 C 0.0 **** -0.24
34572 H 70.50246849902719 98.12968111065686 37.18904365818248 H 0.0 **** 0.06
34573 H 69.71814352202058 96.99682309633911 38.31609909583425 H 0.0 **** 0.06
34574 H 70.06300258571252 96.4934158479002 36.644348755549515 H 0.0 **** 0.06
34575 H 68.79034199411697 97.69583665683373 36.96659423841284 H 0.0 **** 0.06
34576 C 46.74568043855018 104.97460078373588 98.69629850179513 C 0.0 **** -0.24
34577 H 46.49623227088571 103.93669212516913 98.91884282757286 H 0.0 **** 0.06
34578 H 47.241353977093894 105.42174620202402 99.55809861543514 H 0.0 **** 0.06
34579 H 45.833517038012985 105.52759970928055 98.47402662481153 H 0.0 **** 0.06
34580 H 47.41165159901644 105.01109747643653 97.83359973745581 H 0.0 **** 0.06
34581 C 101.28360604424584 38.548313886099436 38.570119197187466 C 0.0 **** -0.24
34582 H 100.90515266623323 38.9700581725439 39.500932539081646 H 0.0 **** 0.06
34583 H 100.49902019475137 37.9630754025535 38.091310640292875 H 0.0 **** 0.06
34584 H 102.13784548122003 37.90584086384325 38.783862292872925 H 0.0 **** 0.06
34585 H 101.5932224593354 39.35499237551113 37.90605280496095 H 0.0 **** 0.06
34586 C 38.29056399906442 89.95434792735905 29.43956256399497 C 0.0 **** -0.24
34587 H 37.69246503402091 90.30662863103937 30.28041848274873 H 0.0 **** 0.06
34588 H 37.7720768733788 89.13112641474501 28.94616086676902 H 0.0 **** 0.06
34589 H 39.25818871431535 89.60993853235651 29.801878997809297 H 0.0 **** 0.06
34590 H 38.436101756408014 90.7700245973581 28.73126598580521 H 0.0 **** 0.06
34591 C 19.275453391944723 16.130809033938704 17.49556859447949 C 0.0 **** -0.24
34592 H 20.00585280173769 15.479044347668605 17.97467734041067 H 0.0 **** 0.06
34593 H 18.520012480883764 16.42747755112586 18.223612932393216 H 0.0 **** 0.06
34594 H 18.798838881505134 15.599017093328769 16.67192992445355 H 0.0 **** 0.06
34595 H 19.779077733110796 17.018460492650817 17.111317154434946 H 0.0 **** 0.06
34596 C 10.572260428284862 84.89784091513519 79.12974325621713 C 0.0 **** -0.24
34597 H 10.501239664644926 84.91762385478208 80.21751548442654 H 0.0 **** 0.06
34598 H 9.613052545487493 85.18576376875494 78.6978110374339 H 0.0 **** 0.06
34599 H 10.83075622896862 83.89064043158635 78.8022011441875 H 0.0 **** 0.06
34600 H 11.343482509391613 85.5956481559594 78.80282080930772 H 0.0 **** 0.06
34601 C 63.17607780413476 94.21316187043843 7.50793662234071 C 0.0 **** -0.24
34602 H 63.65996532337061 93.64874129580868 8.305251494866916 H 0.0 **** 0.06
34603 H 63.45653082846684 95.26333741885668 7.5853323506225205 H 0.0 **** 0.06
34604 H 62.09432650373634 94.11654130238253 7.600986612871633 H 0.0 **** 0.06
34605 H 63.493573850498706 93.82146027061533 6.541726080881935 H 0.0 **** 0.06
34606 C 60.3136817493824 63.12336636942035 83.7294400399231 C 0.0 **** -0.24
34607 H 61.088028801191655 63.713417645758625 83.23782138227367 H 0.0 **** 0.06
34608 H 60.306349743417 62.115610600483194 83.31205372128355 H 0.0 **** 0.06
34609 H 59.3427923012853 63.59138598652669 83.56844624768084 H 0.0 **** 0.06
34610 H 60.52008326034229 63.072293718914295 84.79801042111998 H 0.0 **** 0.06
34611 C 42.7832572287665 11.715634185852693 36.2207184232943 C 0.0 **** -0.24
34612 H 42.886547526368986 11.045063636114847 37.074276269015854 H 0.0 **** 0.06
34613 H 43.70046835368635 11.695280320771985 35.63080889414715 H 0.0 **** 0.06
34614 H 42.60091111479625 12.729734696777342 36.575166893492906 H 0.0 **** 0.06
34615 H 41.94642985943938 11.390621572089259 35.603551182968744 H 0.0 **** 0.06
34616 C 90.00225813086806 87.42911512432556 3.4193518575770554 C 0.0 **** -0.24
34617 H 91.05768763198435 87.59052217446865 3.6380869187748317 H 0.0 **** 0.06
34618 H 89.82140348913285 87.59521890602588 2.3577239543037365 H 0.0 **** 0.06
34619 H 89.40003850282395 88.12358212123199 4.005212609723117 H 0.0 **** 0.06
34620 H 89.73068321188563 86.40589347427839 3.6790001347404484 H 0.0 **** 0.06
34621 C 74.31725388742933 70.14670947657734 74.7123516803324 C 0.0 **** -0.24
34622 H 75.08397703660913 70.86881875853405 74.9914546422485 H 0.0 **** 0.06
34623 H 73.42443291590496 70.67458740375176 74.37603731784102 H 0.0 **** 0.06
34624 H 74.07030645312636 69.52744137049748 75.57511336146 H 0.0 **** 0.06
34625 H 74.69050246562986 69.51427890369379 73.90662915140395 H 0.0 **** 0.06
34626 C 10.010427172371664 93.30627474372407 27.25920593440731 C 0.0 **** -0.24
34627 H 9.408580862425623 93.4742672521704 28.152951029537952 H 0.0 **** 0.06
34628 H 10.967521076992227 93.81714404118786 27.365203730546877 H 0.0 **** 0.06
34629 H 9.484161474240551 93.69608827041219 26.387769450041453 H 0.0 **** 0.06
34630 H 10.180484452033028 92.23651325281904 27.13260167555964 H 0.0 **** 0.06
34631 C 46.52823363659007 92.58287315433905 63.49762814124577 C 0.0 **** -0.24
34632 H 45.7889059153365 92.9487271811414 64.20964009851986 H 0.0 **** 0.06
34633 H 47.47136333084046 93.10602703446644 63.6521631114332 H 0.0 **** 0.06
34634 H 46.17409251456144 92.76279115757337 62.48260829773051 H 0.0 **** 0.06
34635 H 46.6764217219353 91.51345670452176 63.64646509864947 H 0.0 **** 0.06
34636 C 50.857979502513984 96.84751350586828 78.45161276837916 C 0.0 **** -0.24
34637 H 49.773000665237504 96.76961440013343 78.52518847742152 H 0.0 **** 0.06
34638 H 51.32064858594123 96.16346804108235 79.16375522310585 H 0.0 **** 0.06
34639 H 51.16454183143392 97.86883229009351 78.67596997195585 H 0.0 **** 0.06
34640 H 51.17298216858924 96.5875588194578 77.4412081112905 H 0.0 **** 0.06
34641 C 2.0933383380433668 65.7156760512816 84.02799899301901 C 0.0 **** -0.24
34642 H 1.0913092084671518 65.3758528205623 84.29084976252118 H 0.0 **** 0.06
34643 H 2.3449181589458874 66.59517473033813 84.62075052392008 H 0.0 **** 0.06
34644 H 2.1233701600818193 65.97059973583018 82.96807646366887 H 0.0 **** 0.06
34645 H 2.8118518039652116 64.92149829041242 84.23122497291475 H 0.0 **** 0.06
34646 C 21.503257906805743 80.77850107826018 21.588472561911743 C 0.0 **** -0.24
34647 H 20.858772923002675 80.78113668942393 20.709206456738258 H 0.0 **** 0.06
34648 H 21.257863742747105 79.9208580635858 22.215208465077723 H 0.0 **** 0.06
34649 H 21.349280541737755 81.69747473093116 22.1545530597963 H 0.0 **** 0.06
34650 H 22.544959563670403 80.71414730675255 21.275376855970574 H 0.0 **** 0.06
34651 C 93.22554184824473 23.3038903576625 1.7585643293305964 C 0.0 **** -0.24
34652 H 93.87177614526864 23.688572695323355 0.9701929733889187 H 0.0 **** 0.06
34653 H 93.5753281630584 22.318572633892565 2.067410968951947 H 0.0 **** 0.06
34654 H 92.20401990414723 23.22580698930182 1.3849071813850742 H 0.0 **** 0.06
34655 H 93.24993661853884 23.982554802279157 2.6108671809965642 H 0.0 **** 0.06
34656 C 76.4869678074225 30.285518640574253 32.89076211891086 C 0.0 **** -0.24
34657 H 77.39766750184327 29.74702568123513 33.15279475489473 H 0.0 **** 0.06
34658 H 76.41629480460941 31.192918348020044 33.491294255064446 H 0.0 **** 0.06
34659 H 75.62164049900314 29.651924524030846 33.087505328837636 H 0.0 **** 0.06
34660 H 76.51181965825461 30.549463853172426 31.833515215216465 H 0.0 **** 0.06
34661 C 50.43043794563573 85.36382530379848 6.011348861281547 C 0.0 **** -0.24
34662 H 51.167058325359335 85.09792143749195 6.769682079778818 H 0.0 **** 0.06
34663 H 50.053880868010936 84.45715667957893 5.537638520500494 H 0.0 **** 0.06
34664 H 50.897114678050684 86.00092182436231 5.259877922848503 H 0.0 **** 0.06
34665 H 49.60393632825901 85.89865467084519 6.480547525798912 H 0.0 **** 0.06
34666 C 63.048706877438846 14.125324003542232 96.3360741447115 C 0.0 **** -0.24
34667 H 63.88298984934241 13.535396134076564 95.95745467038181 H 0.0 **** 0.06
34668 H 62.181200233055065 13.982862160859327 95.69078614243232 H 0.0 **** 0.06
34669 H 63.32438621927599 15.180213431896618 96.34679509081812 H 0.0 **** 0.06
34670 H 62.80489409293506 13.803409018409866 97.34835709002422 H 0.0 **** 0.06
34671 C 68.0850028258535 102.58904200263811 97.5118648146584 C 0.0 **** -0.24
34672 H 68.61887276995829 101.82750900784708 98.08095366585178 H 0.0 **** 0.06
34673 H 67.01115822301219 102.45620074440285 97.64671924169431 H 0.0 **** 0.06
34674 H 68.33325640052246 102.49271259332934 96.45510301831297 H 0.0 **** 0.06
34675 H 68.3765237440107 103.5774979101308 97.8656361223978 H 0.0 **** 0.06
34676 C 96.80302320593643 54.38815250895357 42.23669722887166 C 0.0 **** -0.24
34677 H 96.83907789635325 53.67148725004693 43.056892115118615 H 0.0 **** 0.06
34678 H 96.85710258142903 55.40134190402126 42.63627003289321 H 0.0 **** 0.06
34679 H 95.87072078988412 54.26366890905922 41.68620315225564 H 0.0 **** 0.06
34680 H 97.64618929577814 54.21608272676249 41.567362736503156 H 0.0 **** 0.06
34681 C 25.559586258510706 67.24062341227943 58.232642704376886 C 0.0 **** -0.24
34682 H 25.27492678451199 66.73281596728705 57.31021689886875 H 0.0 **** 0.06
34683 H 26.54038175746433 66.88819614438464 58.55261604365084 H 0.0 **** 0.06
34684 H 24.824359544399783 67.02385410630637 59.00781782641489 H 0.0 **** 0.06
34685 H 25.597378338816895 68.31567740537699 58.05779602525408 H 0.0 **** 0.06
34686 C 12.938298068504253 105.87058532986507 50.569777965640355 C 0.0 **** -0.24
34687 H 12.964346194947083 104.78038088328955 50.564726245999566 H 0.0 **** 0.06
34688 H 13.286421655338017 106.23802522009521 51.535116041951994 H 0.0 **** 0.06
34689 H 11.915838753082028 106.20950636374798 50.39970374764238 H 0.0 **** 0.06
34690 H 13.584344769159586 106.2524529967809 49.77929238629247 H 0.0 **** 0.06
34691 C 7.117950676402927 4.6525583686297 6.081255293585658 C 0.0 **** -0.24
34692 H 6.583807322721055 5.517269007931906 5.687323699934966 H 0.0 **** 0.06
34693 H 7.018518108867431 3.8173327848775873 5.38828481994234 H 0.0 **** 0.06
34694 H 6.695806459713271 4.374631012448874 7.046912761302876 H 0.0 **** 0.06
34695 H 8.17178911491282 4.900586369387861 6.204012453668161 H 0.0 **** 0.06
34696 C 65.3410974326585 43.92433636273694 66.28450341956633 C 0.0 **** -0.24
34697 H 66.40861873172622 43.95520417684685 66.50636201959189 H 0.0 **** 0.06
34698 H 64.77883722055384 44.25642337888587 67.15763479908723 H 0.0 **** 0.06
34699 H 65.0525302291469 42.90387581585321 66.03313529410296 H 0.0 **** 0.06
34700 H 65.12684060661024 44.58144190535438 65.44258480545714 H 0.0 **** 0.06
34701 C 55.8373130420415 78.8759609304187 74.16249880219442 C 0.0 **** -0.24
34702 H 56.64674136968438 79.118532380042 73.47378290092746 H 0.0 **** 0.06
34703 H 55.30212253663234 79.78881240240163 74.42848588753452 H 0.0 **** 0.06
34704 H 56.2497733633802 78.42000195654322 75.0619272616473 H 0.0 **** 0.06
34705 H 55.1498198365511 78.1789060833806 73.68304874868628 H 0.0 **** 0.06
34706 C 33.27384711530709 11.454419031778286 32.40749870548897 C 0.0 **** -0.24
34707 H 34.249714694449324 11.051976019935012 32.68058080297255 H 0.0 **** 0.06
34708 H 32.679966943309466 11.610014690083403 33.30891098721003 H 0.0 **** 0.06
34709 H 32.76217192129309 10.751438734926069 31.751511035695934 H 0.0 **** 0.06
34710 H 33.404323981623236 12.404872436351354 31.89040122404822 H 0.0 **** 0.06
34711 C 43.80385854398312 45.77678015280384 74.45454524688907 C 0.0 **** -0.24
34712 H 42.811458305077906 45.549508215778985 74.84336258282283 H 0.0 **** 0.06
34713 H 43.93004034353398 46.85775288747044 74.38954653312828 H 0.0 **** 0.06
34714 H 43.91487703040133 45.33713315119354 73.46390047414366 H 0.0 **** 0.06
34715 H 44.5589732837653 45.36239041129477 75.12274251797066 H 0.0 **** 0.06
34716 C 10.353574223783426 79.59850148856202 15.975625890158298 C 0.0 **** -0.24
34717 H 10.935450893475064 80.34681712868297 16.51279895879067 H 0.0 **** 0.06
34718 H 9.570116901049744 80.09162254694883 15.40004621712022 H 0.0 **** 0.06
34719 H 9.901991735096601 78.90909195593642 16.689239564225588 H 0.0 **** 0.06
34720 H 11.007709761223452 79.04531629537092 15.30126354381035 H 0.0 **** 0.06
34721 C 64.84021268073303 8.533331710223663 70.33623857299278 C 0.0 **** -0.24
34722 H 64.23482007498404 7.784932081097551 70.84759118561215 H 0.0 **** 0.06
34723 H 65.2245294446189 9.248446822545091 71.0644664002279 H 0.0 **** 0.06
34724 H 64.22632631377911 9.056190926092583 69.60206452758848 H 0.0 **** 0.06
34725 H 65.67360322798476 8.045104625619317 69.8316771906317 H 0.0 **** 0.06
34726 C 46.25900377692085 73.96602470840733 87.08809438396355 C 0.0 **** -0.24
34727 H 46.33293290501763 73.13923609750307 86.38232194134957 H 0.0 **** 0.06
34728 H 47.24554847301141 74.40376454496186 87.23925684138493 H 0.0 **** 0.06
34729 H 45.87378098309068 73.5981636196704 88.03915501918289 H 0.0 **** 0.06
34730 H 45.582278721290436 74.72316071055212 86.68997749840139 H 0.0 **** 0.06
34731 C 28.969457966766356 75.83376979592612 4.690379708452497 C 0.0 **** -0.24
34732 H 29.678842928551383 76.40073858949106 5.292935145174681 H 0.0 **** 0.06
34733 H 28.892023413472344 74.81800806045175 5.0796980239776985 H 0.0 **** 0.06
34734 H 29.31485482828534 75.8016105725913 3.65658884777784 H 0.0 **** 0.06
34735 H 27.991673613138193 76.31461859449405 4.731403329728835 H 0.0 **** 0.06
34736 C 28.97238077496786 54.70228305979984 71.27519176883831 C 0.0 **** -0.24
34737 H 28.255202548295955 54.669663456952634 70.45494176711992 H 0.0 **** 0.06
34738 H 29.728374263071004 55.45832360033029 71.06625351640011 H 0.0 **** 0.06
34739 H 29.450272515011278 53.727866650661895 71.37803081484205 H 0.0 **** 0.06
34740 H 28.45336406813712 54.95177320610827 72.2009088173937 H 0.0 **** 0.06
34741 C 93.68420957751277 77.16671056479083 44.10901960003838 C 0.0 **** -0.24
34742 H 94.67544351531433 77.5980933489173 44.244414685336324 H 0.0 **** 0.06
34743 H 93.76913029221436 76.22184335379376 43.57187981228685 H 0.0 **** 0.06
34744 H 93.06371370039818 77.85605951856661 43.53574250409616 H 0.0 **** 0.06
34745 H 93.22816171045952 76.99173004052852 45.082603592763064 H 0.0 **** 0.06
34746 C 13.20996506191807 66.97849446177783 11.777435712610488 C 0.0 **** -0.24
34747 H 12.147240977861543 67.07320527824449 12.001558696341531 H 0.0 **** 0.06
34748 H 13.791439449438712 67.20846674171014 12.671118019955845 H 0.0 **** 0.06
34749 H 13.476416679430912 67.67330968790786 10.98072493496309 H 0.0 **** 0.06
34750 H 13.423590089979939 65.95869114021126 11.457069909772311 H 0.0 **** 0.06
34751 C 54.21359599336961 101.07624677701278 89.52122017273797 C 0.0 **** -0.24
34752 H 54.60262841590347 102.02378156391563 89.8940704281041 H 0.0 **** 0.06
34753 H 53.15067707408781 101.1803829723168 89.30484387660204 H 0.0 **** 0.06
34754 H 54.35785525731825 100.30280371050274 90.2750548744902 H 0.0 **** 0.06
34755 H 54.745024405903706 100.79909974517665 88.6101449141546 H 0.0 **** 0.06
34756 C 85.81704838624539 67.90693337299736 80.8529387173991 C 0.0 **** -0.24
34757 H 86.4942788027058 67.67237275166626 80.0316726296841 H 0.0 **** 0.06
34758 H 86.27728688807615 67.61751985459365 81.79708065193407 H 0.0 **** 0.06
34759 H 84.88305132840203 67.36036313569662 80.72018252338259 H 0.0 **** 0.06
34760 H 85.61360750580967 68.97768874460269 80.85982658469376 H 0.0 **** 0.06
34761 C 84.88084624825086 42.32203016133738 96.71613494727553 C 0.0 **** -0.24
34762 H 85.74229915647794 42.96238653041959 96.90949311535348 H 0.0 **** 0.06
34763 H 84.49720365015521 42.523596567235955 95.71534720387378 H 0.0 **** 0.06
34764 H 84.10391422508076 42.52706749471571 97.45203438982408 H 0.0 **** 0.06
34765 H 85.18229809800015 41.2772953459486 96.78687828869693 H 0.0 **** 0.06
34766 C 67.43316614979807 53.90105438844533 43.08402495268368 C 0.0 **** -0.24
34767 H 68.10632862030843 54.701054819040536 43.39215529225035 H 0.0 **** 0.06
34768 H 66.43812347910006 54.087718407302354 43.48990474770031 H 0.0 **** 0.06
34769 H 67.80562450124862 52.94756282785492 43.45950379665467 H 0.0 **** 0.06
34770 H 67.38201214949751 53.867981855579494 41.996448697515405 H 0.0 **** 0.06
34771 C 30.648555909426904 13.789244539452284 94.6956503625133 C 0.0 **** -0.24
34772 H 30.585112905447772 14.102894284015917 95.73753880300589 H 0.0 **** 0.06
34773 H 30.49839906569605 14.652422543708667 94.04656916527401 H 0.0 **** 0.06
34774 H 29.879107233870343 13.043614771700334 94.49441987003976 H 0.0 **** 0.06
34775 H 31.631525452829237 13.357384387267757 94.50620797857957 H 0.0 **** 0.06
34776 C 101.41850777421092 29.086190773367207 56.290658119777504 C 0.0 **** -0.24
34777 H 100.88839175952442 28.14297940807694 56.15503333245459 H 0.0 **** 0.06
34778 H 100.72056496069365 29.915691911019508 56.173187101683936 H 0.0 **** 0.06
34779 H 102.21011202288713 29.168558614546782 55.54661920316022 H 0.0 **** 0.06
34780 H 101.854229061564 29.116616662833366 57.289696140550404 H 0.0 **** 0.06
34781 C 67.6548648155939 41.88766289846134 80.84545716023781 C 0.0 **** -0.24
34782 H 67.8246950149994 42.31047654219793 81.83618975898526 H 0.0 **** 0.06
34783 H 66.92402072555745 42.49622285849327 80.3113874341387 H 0.0 **** 0.06
34784 H 67.27687529702607 40.869944898778584 80.94521048639368 H 0.0 **** 0.06
34785 H 68.59261421880942 41.87394100197423 80.29089117886745 H 0.0 **** 0.06
34786 C 92.3651490309005 25.343881266679034 20.728990394351925 C 0.0 **** -0.24
34787 H 91.37741963270176 25.784998488289858 20.593764814778353 H 0.0 **** 0.06
34788 H 92.93706698537447 25.944715202839262 21.435936736606976 H 0.0 **** 0.06
34789 H 92.8845202431623 25.31698355678097 19.771101694878737 H 0.0 **** 0.06
34790 H 92.25948604759739 24.329702644014446 21.114257528840056 H 0.0 **** 0.06
34791 C 99.14660895310594 55.29220549680801 73.03182061255472 C 0.0 **** -0.24
34792 H 98.82201415088466 54.48453885448217 73.68734825067139 H 0.0 **** 0.06
34793 H 99.15284181957153 54.94094892741873 71.99934507190704 H 0.0 **** 0.06
34794 H 100.15181826682645 55.606724713264356 73.31382884280481 H 0.0 **** 0.06
34795 H 98.46150188569298 56.13430550826203 73.12594579588875 H 0.0 **** 0.06
34796 C 56.27025883871184 4.925652952430397 4.7773801471551565 C 0.0 **** -0.24
34797 H 55.48778434682231 5.551048380221005 4.34827653648654 H 0.0 **** 0.06
34798 H 56.40882685955415 4.0404926935941035 4.1556680118162825 H 0.0 **** 0.06
34799 H 55.980808128984336 4.622035138215978 5.7837753224046455 H 0.0 **** 0.06
34800 H 57.20234827582868 5.4886864906640085 4.821280100589714 H 0.0 **** 0.06
34801 C 82.29617922891606 4.149033590923324 39.172459022596364 C 0.0 **** -0.24
34802 H 82.00127493436105 4.117296764644394 40.2218650403225 H 0.0 **** 0.06
34803 H 82.25927789836277 5.1791496910617525 38.8170285049324 H 0.0 **** 0.06
34804 H 81.61301411036476 3.536905713826556 38.584564014094575 H 0.0 **** 0.06
34805 H 83.31076261911318 3.765329493850615 39.067915292571584 H 0.0 **** 0.06
34806 C 59.14847886049367 77.55085863031226 6.891969672605796 C 0.0 **** -0.24
34807 H 59.284457867659825 77.1828029357886 7.90812386855896 H 0.0 **** 0.06
34808 H 58.105453417534164 77.43005663193497 6.598108235524876 H 0.0 **** 0.06
34809 H 59.7850398997943 76.98426143356099 6.212424704617419 H 0.0 **** 0.06
34810 H 59.418865026316496 78.60611373232055 6.847825339467789 H 0.0 **** 0.06
34811 C 90.1717078376856 37.526492811479784 13.215648579713047 C 0.0 **** -0.24
34812 H 90.8018321427124 38.210440713003095 12.646669355651994 H 0.0 **** 0.06
34813 H 90.80068642403513 36.871052696598554 13.81943163492258 H 0.0 **** 0.06
34814 H 89.57482241448044 36.926060296746186 12.52798487819257 H 0.0 **** 0.06
34815 H 89.51036948972704 38.097765059026415 13.866834651715635 H 0.0 **** 0.06
34816 C 15.640489990712215 82.58390665580649 50.9418837325452 C 0.0 **** -0.24
34817 H 15.05261244659128 83.48476344299104 50.769858483140254 H 0.0 **** 0.06
34818 H 16.465105466269915 82.81196358778286 51.61673188518554 H 0.0 **** 0.06
34819 H 16.03625461707181 82.22200257280568 49.99261215340352 H 0.0 **** 0.06
34820 H 15.006910016130835 81.81616792726754 51.38777771081203 H 0.0 **** 0.06
34821 C 22.14737943907543 91.49967066884909 74.69856181266437 C 0.0 **** -0.24
34822 H 22.87940216938784 92.23065042374661 74.35620966229058 H 0.0 **** 0.06
34823 H 22.15925607884937 91.45685496283554 75.78789853390575 H 0.0 **** 0.06
34824 H 22.395048567639694 90.51947450637336 74.29297689554241 H 0.0 **** 0.06
34825 H 21.15422041111619 91.79314695505147 74.3577824912721 H 0.0 **** 0.06
34826 C 6.330793474405908 81.52994818897483 59.99459036732371 C 0.0 **** -0.24
34827 H 7.2199018915023885 81.90498366934033 60.50342669604892 H 0.0 **** 0.06
34828 H 6.155428065133577 82.11559428191197 59.09226208647674 H 0.0 **** 0.06
34829 H 5.470076825881563 81.61658735332803 60.65786347937299 H 0.0 **** 0.06
34830 H 6.479637188346004 80.48410117443693 59.7275168936548 H 0.0 **** 0.06
34831 C 32.58140693192453 27.240529993997043 40.73425763724731 C 0.0 **** -0.24
34832 H 31.71976446854599 27.897748044934474 40.615033361296184 H 0.0 **** 0.06
34833 H 32.29560859411566 26.218290017589254 40.483735166149756 H 0.0 **** 0.06
34834 H 32.92747024685468 27.278615659913427 41.76650533470274 H 0.0 **** 0.06
34835 H 33.382054119348965 27.567409419622095 40.07018710993441 H 0.0 **** 0.06
34836 C 35.64078870200382 1.0068265890946009 76.83353888960053 C 0.0 **** -0.24
34837 H 35.077890134573124 0.8065931048157591 75.92249256315674 H 0.0 **** 0.06
34838 H 34.953900264007586 1.0742099677454133 77.67756109912978 H 0.0 **** 0.06
34839 H 36.17966567333468 1.9486427912877682 76.72752670496193 H 0.0 **** 0.06
34840 H 36.35174302633203 0.19918404184516048 77.0076916112039 H 0.0 **** 0.06
34841 C 90.1395124968032 102.99001988689308 90.07954267818535 C 0.0 **** -0.24
34842 H 89.99113698013497 101.97071443357788 90.4347141327052 H 0.0 **** 0.06
34843 H 89.50282849352357 103.16825245227996 89.21144334006196 H 0.0 **** 0.06
34844 H 91.18348563298667 103.12826844174202 89.79797538051743 H 0.0 **** 0.06
34845 H 89.87909034813026 103.69234673420004 90.87149281481574 H 0.0 **** 0.06
34846 C 53.33003896191118 24.874980786361817 34.13476773270162 C 0.0 **** -0.24
34847 H 53.43228634937286 24.311249600318703 33.20815439819836 H 0.0 **** 0.06
34848 H 52.27363267836939 25.063511267246696 34.33048898694739 H 0.0 **** 0.06
34849 H 53.85759616084515 25.82494538200568 34.041738511154534 H 0.0 **** 0.06
34850 H 53.75513909841344 24.30171657192588 34.9579843944428 H 0.0 **** 0.06
34851 C 18.12825734702858 41.16481515895231 87.10671386246239 C 0.0 **** -0.24
34852 H 18.609371224187868 42.14023060690914 87.17519615961389 H 0.0 **** 0.06
34853 H 17.124088388797617 41.22430107422292 87.52832494832639 H 0.0 **** 0.06
34854 H 18.71256297754104 40.43167141336713 87.66145508039776 H 0.0 **** 0.06
34855 H 18.0660432243979 40.86302586838639 86.06044028212406 H 0.0 **** 0.06
34856 C 78.07130838220758 24.412410228469483 31.359442151118742 C 0.0 **** -0.24
34857 H 77.42388147915068 25.121785922950295 30.844636164140397 H 0.0 **** 0.06
34858 H 79.02612892061632 24.88883541329922 31.58313058948862 H 0.0 **** 0.06
34859 H 78.23894652054855 23.545416882351716 30.721022488651883 H 0.0 **** 0.06
34860 H 77.59764981936456 24.094305791701643 32.28736066592245 H 0.0 **** 0.06
34861 C 13.78036332569468 23.21781996095666 82.04326792626574 C 0.0 **** -0.24
34862 H 12.7128910968934 23.150734715215236 81.83663237020068 H 0.0 **** 0.06
34863 H 13.996099172347257 24.16840137679145 82.53302481634921 H 0.0 **** 0.06
34864 H 14.336067392016574 23.156658432861605 81.10811718057067 H 0.0 **** 0.06
34865 H 14.076317581663332 22.39664477343797 82.69610335535185 H 0.0 **** 0.06
34866 C 91.1140944754691 103.27370464700101 29.891642758295234 C 0.0 **** -0.24
34867 H 90.22144844352059 102.90393852138658 30.396049117443653 H 0.0 **** 0.06
34868 H 92.00168663760809 102.92340118152458 30.418701913647425 H 0.0 **** 0.06
34869 H 91.10228996127242 104.36403314458386 29.884630653208944 H 0.0 **** 0.06
34870 H 91.13060429234969 102.9043304183952 28.866142478262134 H 0.0 **** 0.06
34871 C 52.704955034606954 103.21527046139207 53.20353861852132 C 0.0 **** -0.24
34872 H 52.81768152385116 102.54049434678709 52.355504067835824 H 0.0 **** 0.06
34873 H 52.277538198488436 102.6712961057307 54.04563744788268 H 0.0 **** 0.06
34874 H 52.04407996084326 104.0377140028163 52.92843409326582 H 0.0 **** 0.06
34875 H 53.68063164983159 103.61290732775743 53.48411089710655 H 0.0 **** 0.06
34876 C 51.70736348136586 67.03354385247668 82.9404603336806 C 0.0 **** -0.24
34877 H 52.685158461630294 66.58973102782974 82.75125965999385 H 0.0 **** 0.06
34878 H 51.59309569334238 67.9319653332758 82.33257013098653 H 0.0 **** 0.06
34879 H 51.62399538604211 67.29434334492319 83.99443755746768 H 0.0 **** 0.06
34880 H 50.92773996242596 66.31739213859993 82.67994618920443 H 0.0 **** 0.06
34881 C 54.7104012777568 67.0067964467475 12.757533428404273 C 0.0 **** -0.24
34882 H 55.61995877110331 66.46471795319172 13.013349203027147 H 0.0 **** 0.06
34883 H 53.87385796810406 66.60369338113969 13.328078697225536 H 0.0 **** 0.06
34884 H 54.50983153182338 66.89715557125561 11.69107272537832 H 0.0 **** 0.06
34885 H 54.838487255004765 68.06338798641798 12.996372470040129 H 0.0 **** 0.06
34886 C 10.149834284390835 53.12774994019163 9.155039430060132 C 0.0 **** -0.24
34887 H 9.416171004010053 53.64036436448103 8.533300476064209 H 0.0 **** 0.06
34888 H 11.13394031322666 53.20097338256127 8.690402547153965 H 0.0 **** 0.06
34889 H 9.872250358988538 52.07804553066593 9.254334726952132 H 0.0 **** 0.06
34890 H 10.177762621198013 53.59029873946214 10.14131743077869 H 0.0 **** 0.06
34891 C 19.468661409704566 20.246607119411948 18.156019669736907 C 0.0 **** -0.24
34892 H 18.64827362586783 19.741914084155088 17.64708601005151 H 0.0 **** 0.06
34893 H 19.92020122999054 19.56658033971281 18.87877834632792 H 0.0 **** 0.06
34894 H 19.088595433491236 21.12716490509045 18.673158440760744 H 0.0 **** 0.06
34895 H 20.217738433775168 20.549785166638546 17.42512819281032 H 0.0 **** 0.06
34896 C 14.73051497323204 45.183564313289395 69.58260326782008 C 0.0 **** -0.24
34897 H 14.396332757525443 46.044745556497645 69.00493660788676 H 0.0 **** 0.06
34898 H 14.835821234486588 44.32130971182701 68.9239506170495 H 0.0 **** 0.06
34899 H 13.997908146453874 44.960469481646925 70.3584335677361 H 0.0 **** 0.06
34900 H 15.691885377473987 45.40729398535527 70.04528209681145 H 0.0 **** 0.06
34901 C 21.898880642222963 3.4170700269413032 33.28224762671501 C 0.0 **** -0.24
34902 H 20.882892285381104 3.143601387365578 33.567377911081735 H 0.0 **** 0.06
34903 H 22.20350586834664 4.307854823394507 33.83167062215664 H 0.0 **** 0.06
34904 H 21.93272559692133 3.620620892595184 32.21185504389419 H 0.0 **** 0.06
34905 H 22.574403852434443 2.5949795880898137 33.51736329983624 H 0.0 **** 0.06
34906 C 105.71955463922635 61.70957093316849 28.744616338435947 C 0.0 **** -0.24
34907 H 105.96488072267462 62.65342966585172 28.257380739457403 H 0.0 **** 0.06
34908 H 105.14391866118902 61.90721930592707 29.649159909893598 H 0.0 **** 0.06
34909 H 106.63866206959105 61.18537276562685 29.005808804371696 H 0.0 **** 0.06
34910 H 105.1298638405471 61.09365237527098 28.064989352629368 H 0.0 **** 0.06
34911 C 92.80108002418237 26.34070531015044 106.21715533747954 C 0.0 **** -0.24
34912 H 91.8716139163271 25.997325451522727 106.67191544820375 H 0.0 **** 0.06
34913 H 93.00627060145831 25.754647846366794 105.32224857912439 H 0.0 **** 0.06
34914 H 93.61918422489367 26.21810846096068 106.92725199129592 H 0.0 **** 0.06
34915 H 92.70631304294707 27.393432155210235 105.95076066818751 H 0.0 **** 0.06
34916 C 78.39869703574283 7.831474758141582 100.81383356683077 C 0.0 **** -0.24
34917 H 77.97689790936568 7.639505590506872 99.82724852559602 H 0.0 **** 0.06
34918 H 78.28167805517364 8.887519370804753 101.05942488149952 H 0.0 **** 0.06
34919 H 79.4580518801904 7.573789264727367 100.81335210508087 H 0.0 **** 0.06
34920 H 77.87777494381646 7.225937130627003 101.55566243811798 H 0.0 **** 0.06
34921 C 52.145095003730354 104.87505666854183 33.04988345315451 C 0.0 **** -0.24
34922 H 52.32515624701131 105.1507836314859 32.011139852867046 H 0.0 **** 0.06
34923 H 51.14419052369988 104.45288905124782 33.145990091174326 H 0.0 **** 0.06
34924 H 52.228947669881805 105.75976891536043 33.68127690568113 H 0.0 **** 0.06
34925 H 52.88225105488154 104.1347555125684 33.36248849308433 H 0.0 **** 0.06
34926 C 84.02754757331775 60.47545638942165 34.56534295422415 C 0.0 **** -0.24
34927 H 82.94096735889775 60.56049527700861 34.588354842727995 H 0.0 **** 0.06
34928 H 84.33263489360405 59.98748713864694 33.638476434952 H 0.0 **** 0.06
34929 H 84.36369401063354 59.883487395184034 35.41595622558597 H 0.0 **** 0.06
34930 H 84.47013988765013 61.46964398756353 34.61615352310781 H 0.0 **** 0.06
34931 C 88.72689966071405 37.03182153468185 64.80725804067863 C 0.0 **** -0.24
34932 H 88.24977886795992 36.05523284123831 64.8877500809169 H 0.0 **** 0.06
34933 H 88.15649248406953 37.65980648114714 64.12240309458221 H 0.0 **** 0.06
34934 H 89.74201602642626 36.91034860078378 64.42916836783532 H 0.0 **** 0.06
34935 H 88.75948570997888 37.50145686534819 65.79104286216158 H 0.0 **** 0.06
34936 C 100.846660553096 0.21005743365913077 59.035102059255166 C 0.0 **** -0.24
34937 H 100.86675436776568 -0.5700469144504723 58.27450090009927 H 0.0 **** 0.06
34938 H 100.55496064961613 -0.22368004832253519 59.99219281914645 H 0.0 **** 0.06
34939 H 100.12745669376326 0.9782252455877369 58.74913042541141 H 0.0 **** 0.06
34940 H 101.83720668825725 0.6547744997919835 59.12470530115243 H 0.0 **** 0.06
34941 C 0.305857385450679 28.783734825006775 56.30450722299162 C 0.0 **** -0.24
34942 H 0.6600691211553027 27.924159021854827 55.73537876763561 H 0.0 **** 0.06
34943 H 0.09265894757668036 28.4773676670686 57.32921369548649 H 0.0 **** 0.06
34944 H -0.602316584467161 29.174259048165247 55.84504711359966 H 0.0 **** 0.06
34945 H 1.0727001763518302 29.55696648399053 56.308048922137004 H 0.0 **** 0.06
34946 C 98.84689137409077 7.963682960108969 15.231355475748899 C 0.0 **** -0.24
34947 H 98.75317667261112 8.86160928939924 14.621055924441876 H 0.0 **** 0.06
34948 H 99.84276649738825 7.92728558340896 15.674462391093641 H 0.0 **** 0.06
34949 H 98.69330588645795 7.083362670656271 14.608596843573238 H 0.0 **** 0.06
34950 H 98.09822247205994 7.983660322832421 16.023447955924382 H 0.0 **** 0.06
34951 C 74.38222779430846 31.39533250386505 47.12076478137379 C 0.0 **** -0.24
34952 H 73.38794040216179 31.65653484552017 47.482014820118366 H 0.0 **** 0.06
34953 H 75.03580875419993 31.19424005161156 47.96932912293133 H 0.0 **** 0.06
34954 H 74.78643422511799 32.224376403061115 46.538995815132125 H 0.0 **** 0.06
34955 H 74.31860790175334 30.507074949966324 46.49229224339558 H 0.0 **** 0.06
34956 C 33.33647927774922 70.01899909295311 77.27726384927001 C 0.0 **** -0.24
34957 H 32.85191489871008 69.49474917218957 76.45422129783368 H 0.0 **** 0.06
34958 H 32.629822038042306 70.13435542180014 78.09995469898426 H 0.0 **** 0.06
34959 H 33.66386698839639 71.00184406833493 76.93926722709017 H 0.0 **** 0.06
34960 H 34.19915224813502 69.44569945126942 77.61672014177267 H 0.0 **** 0.06
34961 C 56.72092909495335 62.44358037652677 88.69623177278343 C 0.0 **** -0.24
34962 H 56.318543942919604 63.445885303715556 88.84474019605634 H 0.0 **** 0.06
34963 H 57.04401873127689 62.036841657078526 89.65559484528976 H 0.0 **** 0.06
34964 H 57.571618873338906 62.491297333461375 88.01571671497572 H 0.0 **** 0.06
34965 H 55.95020245099638 61.8016591239691 88.27079881003095 H 0.0 **** 0.06
34966 C 67.79546625983171 6.917035979040065 72.75406757238984 C 0.0 **** -0.24
34967 H 66.78868777631412 7.255656014949523 73.00083530205399 H 0.0 **** 0.06
34968 H 67.83283915283766 6.623602601773882 71.70436147724037 H 0.0 **** 0.06
34969 H 68.05472007063149 6.062355846572814 73.37940353743424 H 0.0 **** 0.06
34970 H 68.50436550176612 7.725872787089941 72.93167556510923 H 0.0 **** 0.06
34971 C 5.406942100684891 35.06217151758017 75.89523356179345 C 0.0 **** -0.24
34972 H 5.8392231903900615 35.98714073916011 76.27795636375862 H 0.0 **** 0.06
34973 H 6.118073515307588 34.579500460627855 75.22425703061737 H 0.0 **** 0.06
34974 H 4.490252364128558 35.28784487278159 75.35110477639682 H 0.0 **** 0.06
34975 H 5.180846536631616 34.395414245939605 76.72725233345804 H 0.0 **** 0.06
34976 C 15.89715320696844 101.4876435508342 86.28989221640947 C 0.0 **** -0.24
34977 H 16.440736204098556 101.73043649843471 85.3774401539352 H 0.0 **** 0.06
34978 H 15.62369620564796 100.43229132055923 86.27980901738853 H 0.0 **** 0.06
34979 H 14.994264107210881 102.09647932941813 86.34784934111606 H 0.0 **** 0.06
34980 H 16.528631911892504 101.69195200124285 87.15456117747028 H 0.0 **** 0.06
34981 C 5.414034166563187 105.86751503667261 83.74060123795776 C 0.0 **** -0.24
34982 H 5.30258954411765 106.30764106184506 82.7498162608944 H 0.0 **** 0.06
34983 H 6.186598692744218 105.099410752638 83.71167807430994 H 0.0 **** 0.06
34984 H 4.468375559940721 105.4214109874804 84.04811981057517 H 0.0 **** 0.06
34985 H 5.698035476282886 106.6427040441444 84.45209329828812 H 0.0 **** 0.06
34986 C 79.64223526041962 33.27657071716288 53.16107381383472 C 0.0 **** -0.24
34987 H 78.77001653307605 33.929461132413735 53.203267856910934 H 0.0 **** 0.06
34988 H 80.33064243676773 33.63896764109171 52.39826276845436 H 0.0 **** 0.06
34989 H 79.32542666315771 32.26328234875689 52.91444312779749 H 0.0 **** 0.06
34990 H 80.14087096690773 33.27499065247844 54.13094581448221 H 0.0 **** 0.06
34991 C 69.80831387561375 57.508226022414675 92.2197123336194 C 0.0 **** -0.24
34992 H 70.00489580604341 58.55997001818238 92.01088744578756 H 0.0 **** 0.06
34993 H 69.27627235651318 57.42002992913549 93.16754830609453 H 0.0 **** 0.06
34994 H 70.75169008950894 56.966618400102334 92.27953000063056 H 0.0 **** 0.06
34995 H 69.19833648954193 57.087903361419365 91.41911241472384 H 0.0 **** 0.06
34996 C 50.483738343308076 5.332772016391473 57.40702473784486 C 0.0 **** -0.24
34997 H 50.35720490204142 4.648099409418137 58.245483086737345 H 0.0 **** 0.06
34998 H 50.27579407397862 4.807065487598976 56.47455029829738 H 0.0 **** 0.06
34999 H 51.50677212076561 5.707466234061002 57.39403253174261 H 0.0 **** 0.06
35000 H 49.79222894779201 6.168804048008383 57.51363582370834 H 0.0 **** 0.06
35001 C 13.657633617406987 33.44827817798818 23.19597033776432 C 0.0 **** -0.24
35002 H 13.25097989400038 34.319867865595555 22.684988163382535 H 0.0 **** 0.06
35003 H 14.401188960801761 32.9684828731782 22.559642891466478 H 0.0 **** 0.06
35004 H 12.852548981110544 32.74412067758391 23.409000169363946 H 0.0 **** 0.06
35005 H 14.125178673777356 33.75921873502554 24.131004757010835 H 0.0 **** 0.06
35006 C 67.0239166058305 6.162312162908705 1.062157317026049 C 0.0 **** -0.24
35007 H 66.57406256672232 6.416072925425823 2.021591258549279 H 0.0 **** 0.06
35008 H 67.69272014354607 6.964653031075386 0.7509489348463205 H 0.0 **** 0.06
35009 H 66.23994691770838 6.031873953740032 0.316556161426206 H 0.0 **** 0.06
35010 H 67.58958996781718 5.235273844067564 1.1608302980581868 H 0.0 **** 0.06
35011 C 71.50535762045129 5.365178515192781 23.790716089018304 C 0.0 **** -0.24
35012 H 71.59052951020209 5.425937075612808 24.87572754429999 H 0.0 **** 0.06
35013 H 72.50162583916472 5.384318228014536 23.347781487377063 H 0.0 **** 0.06
35014 H 70.92737985220185 6.212838883620805 23.424057860085554 H 0.0 **** 0.06
35015 H 71.00328869429251 4.437081868958188 23.51769940451436 H 0.0 **** 0.06
35016 C 45.31933658748236 26.06036247699214 4.821201107006942 C 0.0 **** -0.24
35017 H 44.673195246775045 26.10766126158063 5.697995221123151 H 0.0 **** 0.06
35018 H 45.39500079479701 27.05145073523269 4.372653730694921 H 0.0 **** 0.06
35019 H 44.896519869415314 25.3643277270003 4.09686807067699 H 0.0 **** 0.06
35020 H 46.30982974167796 25.718333957742317 5.118312920004598 H 0.0 **** 0.06
35021 C 10.803701114839257 30.380410050858984 100.31475693864945 C 0.0 **** -0.24
35022 H 9.746723611733842 30.646751615092953 100.29548376671534 H 0.0 **** 0.06
35023 H 11.39396120846861 31.256750280533964 100.58396051477348 H 0.0 **** 0.06
35024 H 11.106327343728083 30.025541287474397 99.33021685556196 H 0.0 **** 0.06
35025 H 10.965499247588184 29.59235808165741 101.05019433501525 H 0.0 **** 0.06
35026 C 40.45991606913421 0.35695012943868676 105.18089928876044 C 0.0 **** -0.24
35027 H 40.18885020158339 -0.3129236203428718 105.99770723498908 H 0.0 **** 0.06
35028 H 40.08190354779822 -0.044773363670771005 104.24111343705529 H 0.0 **** 0.06
35029 H 41.54580546513162 0.4448932048547789 105.12876473469763 H 0.0 **** 0.06
35030 H 40.0237763404383 1.3401791992310876 105.35872634691368 H 0.0 **** 0.06
35031 C 68.62677246596775 34.51707417813439 53.292512195021274 C 0.0 **** -0.24
35032 H 67.81996383187527 35.21567165812768 53.072116934518704 H 0.0 **** 0.06
35033 H 68.2189393461855 33.51212689118557 53.39797674066217 H 0.0 **** 0.06
35034 H 69.11796533598255 34.81074605644522 54.22009566372744 H 0.0 **** 0.06
35035 H 69.35156758005212 34.53125124155665 52.4767065212963 H 0.0 **** 0.06
35036 C 4.0152608584758696 65.21574453923012 20.44007320864057 C 0.0 **** -0.24
35037 H 4.455647726825703 66.19015886771251 20.228789446457426 H 0.0 **** 0.06
35038 H 3.0508976087717343 65.35075869707384 20.929126758533357 H 0.0 **** 0.06
35039 H 4.68004145440139 64.65071579662498 21.093970002787955 H 0.0 **** 0.06
35040 H 3.8761671061837433 64.67079395620868 19.506222304636793 H 0.0 **** 0.06
35041 C 45.9498153488468 16.476476322091457 33.1229344181458 C 0.0 **** -0.24
35042 H 45.412666877553924 16.909382107751128 33.966232562973275 H 0.0 **** 0.06
35043 H 45.83517414648159 17.119561030551893 32.25024938453211 H 0.0 **** 0.06
35044 H 45.5435355347396 15.489345153156933 32.90221178638281 H 0.0 **** 0.06
35045 H 47.00721232799704 16.386880833907696 33.373120373315714 H 0.0 **** 0.06
35046 C 20.73820403603845 61.69463413593823 97.63796000606953 C 0.0 **** -0.24
35047 H 20.700199487948527 60.670183763519475 97.26638923525087 H 0.0 **** 0.06
35048 H 19.736799682451895 62.124530062940295 97.6200013724648 H 0.0 **** 0.06
35049 H 21.400390321325407 62.28514630023196 97.00393992426427 H 0.0 **** 0.06
35050 H 21.11707980519296 61.69668106633836 98.65999751483105 H 0.0 **** 0.06
35051 C 81.10833615888242 98.70711084183543 77.11692613086706 C 0.0 **** -0.24
35052 H 80.07563592897216 98.43658282365635 76.89451079682395 H 0.0 **** 0.06
35053 H 81.12336516933345 99.60238625096693 77.73834770194038 H 0.0 **** 0.06
35054 H 81.64114454972929 98.9015061469301 76.18606180403786 H 0.0 **** 0.06
35055 H 81.59198339998676 97.88753638610471 77.64820454603196 H 0.0 **** 0.06
35056 C 101.39336855777815 98.02263174262526 28.689570432698005 C 0.0 **** -0.24
35057 H 100.66711488582462 97.45387649939897 28.1093732598615 H 0.0 **** 0.06
35058 H 101.12567559425206 97.9840362827519 29.745541824665025 H 0.0 **** 0.06
35059 H 101.39709541442897 99.05900959731798 28.352045980079936 H 0.0 **** 0.06
35060 H 102.3857748167626 97.59202194976524 28.550011099241658 H 0.0 **** 0.06
35061 C 59.61720947285598 11.790876662135588 53.559162663949046 C 0.0 **** -0.24
35062 H 58.762802590739746 11.119794356233513 53.464874919618715 H 0.0 **** 0.06
35063 H 59.792526269527336 12.010581760958488 54.612175192656785 H 0.0 **** 0.06
35064 H 59.41099042908508 12.717471773391125 53.023574289843665 H 0.0 **** 0.06
35065 H 60.50121194366211 11.315123711301638 53.13502300544285 H 0.0 **** 0.06
35066 C 59.88486598155447 8.197249165915252 56.15677217005219 C 0.0 **** -0.24
35067 H 59.191139736457046 8.857881276948305 56.67722374234658 H 0.0 **** 0.06
35068 H 60.9088056203704 8.482172374113162 56.399897895320095 H 0.0 **** 0.06
35069 H 59.729939567755366 8.283930624327382 55.08124027990016 H 0.0 **** 0.06
35070 H 59.70936408687248 7.168022742991468 56.466753903110366 H 0.0 **** 0.06
35071 C 71.6089694625079 98.73648262099456 14.366706020209428 C 0.0 **** -0.24
35072 H 71.14161701908598 97.81656511355928 14.719180441054903 H 0.0 **** 0.06
35073 H 70.91204779991767 99.27370874896238 13.723367077467739 H 0.0 **** 0.06
35074 H 72.50946678662983 98.4921390865496 13.803106410384071 H 0.0 **** 0.06
35075 H 71.87184908323842 99.36082568543426 15.220195748164791 H 0.0 **** 0.06
35076 C 55.443393999936134 10.110046844278429 95.00576594159 C 0.0 **** -0.24
35077 H 54.636359002501386 10.792362440492582 94.7385812600812 H 0.0 **** 0.06
35078 H 55.190404975080654 9.594881306432384 95.9332581518094 H 0.0 **** 0.06
35079 H 56.36573747283466 10.674315906534915 95.1423918394626 H 0.0 **** 0.06
35080 H 55.578651157820474 9.378276440690229 94.20876887405625 H 0.0 **** 0.06
35081 C 50.40595478768161 94.34934307417635 53.72971101186255 C 0.0 **** -0.24
35082 H 51.38386008197166 93.86962480342982 53.76422624254337 H 0.0 **** 0.06
35083 H 49.77205139499557 93.83046469991473 53.010255345720736 H 0.0 **** 0.06
35084 H 50.52245123165437 95.39032065579715 53.426808387802225 H 0.0 **** 0.06
35085 H 49.94525782189843 94.30710875328222 54.71658499971812 H 0.0 **** 0.06
35086 C 70.13338660313633 82.98560531960845 77.03115914806706 C 0.0 **** -0.24
35087 H 70.97393465677824 82.35073513208431 76.74859308027787 H 0.0 **** 0.06
35088 H 69.24440040146283 82.67681534161606 76.48105825078775 H 0.0 **** 0.06
35089 H 70.366552436851 84.02331324097557 76.79296875437618 H 0.0 **** 0.06
35090 H 69.9499664222996 82.88992163050676 78.1012326804966 H 0.0 **** 0.06
35091 C 103.77186281306399 38.53221546371387 1.7366803870201295 C 0.0 **** -0.24
35092 H 103.55856714394116 37.51166039026751 1.4209115728213817 H 0.0 **** 0.06
35093 H 104.8493180693196 38.69716283412276 1.7304157618643643 H 0.0 **** 0.06
35094 H 103.38598427219804 38.6873415877487 2.744568464609358 H 0.0 **** 0.06
35095 H 103.2929637581693 39.23259268818874 1.0520935293518647 H 0.0 **** 0.06
35096 C 39.947220302167324 23.66267508260205 39.33510069403296 C 0.0 **** -0.24
35097 H 40.19095283163071 23.60427643123066 40.39670459280859 H 0.0 **** 0.06
35098 H 39.299698844526034 24.521966144025725 39.15896277091741 H 0.0 **** 0.06
35099 H 39.432334358665514 22.751202039448685 39.031028210097986 H 0.0 **** 0.06
35100 H 40.864881718223785 23.77225030371406 38.75757538498817 H 0.0 **** 0.06
35101 C 79.40969993798413 64.3541878655297 23.54037681217127 C 0.0 **** -0.24
35102 H 78.64747815782056 65.13205207745449 23.56993825443734 H 0.0 **** 0.06
35103 H 80.23803249126875 64.63164779776986 24.19239896003895 H 0.0 **** 0.06
35104 H 79.77334372354164 64.23980455189388 22.518628596256644 H 0.0 **** 0.06
35105 H 78.97905955599096 63.411885014901316 23.879941140985384 H 0.0 **** 0.06
35106 C 16.5707275184933 43.052168646247054 93.09470342432324 C 0.0 **** -0.24
35107 H 15.687319258849485 43.57223965088974 92.7232081476649 H 0.0 **** 0.06
35108 H 17.424014397612623 43.28848712509796 92.45920380037954 H 0.0 **** 0.06
35109 H 16.392392732559216 41.97648342872901 93.07776901480419 H 0.0 **** 0.06
35110 H 16.777464506436104 43.37034951812569 94.11566590006208 H 0.0 **** 0.06
35111 C 13.608945327887056 69.6084278082069 90.22692908732873 C 0.0 **** -0.24
35112 H 13.252694254704465 69.12161438217072 89.31931102417391 H 0.0 **** 0.06
35113 H 12.767583133119274 69.79458066093034 90.89404860914351 H 0.0 **** 0.06
35114 H 14.083988238440838 70.55546367497337 89.96771087286191 H 0.0 **** 0.06
35115 H 14.332624755722634 68.96396982869001 90.72462240930642 H 0.0 **** 0.06
35116 C 87.8586860974845 4.824321544878586 10.491035353596287 C 0.0 **** -0.24
35117 H 87.16794032838052 5.489261098712518 9.97287479553956 H 0.0 **** 0.06
35118 H 88.70836317689736 5.400371146090464 10.85970390192482 H 0.0 **** 0.06
35119 H 88.21086304111316 4.057363694242753 9.801781607048003 H 0.0 **** 0.06
35120 H 87.34774343721571 4.352517082635643 11.329899359355988 H 0.0 **** 0.06
35121 C 47.15501270294101 85.28056234611799 13.263875438349 C 0.0 **** -0.24
35122 H 46.44282846177393 84.98609219963578 14.03490180655264 H 0.0 **** 0.06
35123 H 48.12096178771876 84.81641470966241 13.465865782607054 H 0.0 **** 0.06
35124 H 47.26534026860578 86.36465171136504 13.266273898019534 H 0.0 **** 0.06
35125 H 46.79117540676697 84.95440255636461 12.289669141692782 H 0.0 **** 0.06
35126 C 89.38276008216678 90.99824725131924 69.11431807220033 C 0.0 **** -0.24
35127 H 89.95133409745426 91.4430654279455 68.29814771744216 H 0.0 **** 0.06
35128 H 88.64306578017941 90.30855485221508 68.70878089290692 H 0.0 **** 0.06
35129 H 88.87767702158138 91.78473051231146 69.67545968509245 H 0.0 **** 0.06
35130 H 90.0603930146016 90.4582327777303 69.77552732782846 H 0.0 **** 0.06
35131 C 89.17338069421797 54.77381969021394 58.982322644146166 C 0.0 **** -0.24
35132 H 89.54556632810083 53.808353669214625 58.6425376660828 H 0.0 **** 0.06
35133 H 88.35293094964193 54.62115640396587 59.68453693588407 H 0.0 **** 0.06
35134 H 88.81870791983587 55.34823016566611 58.1271533697782 H 0.0 **** 0.06
35135 H 89.97825295091708 55.31882021585551 59.47743159282848 H 0.0 **** 0.06
35136 C 38.44723703170064 29.119443859344642 2.150667556737716 C 0.0 **** -0.24
35137 H 39.43183721675348 29.516197485575134 1.901443194780029 H 0.0 **** 0.06
35138 H 37.87443073366933 29.878304284766756 2.68468305755124 H 0.0 **** 0.06
35139 H 38.559435067596894 28.237934754400158 2.7807444875452063 H 0.0 **** 0.06
35140 H 37.92397261446499 28.846950690424308 1.2329935265658492 H 0.0 **** 0.06
35141 C 33.03704416726646 61.81455129991028 100.47103283962898 C 0.0 **** -0.24
35142 H 33.72229321496144 61.76857490844847 101.31666429605421 H 0.0 **** 0.06
35143 H 32.904782237967794 62.85314540519617 100.16717466197152 H 0.0 **** 0.06
35144 H 32.07313841616502 61.39436897310563 100.75984985373998 H 0.0 **** 0.06
35145 H 33.44778705130773 61.24292524653171 99.63892128753147 H 0.0 **** 0.06
35146 C 56.08577013459248 80.16424918134874 69.53660752229341 C 0.0 **** -0.24
35147 H 55.6169312413021 79.39457443748285 68.92416932081132 H 0.0 **** 0.06
35148 H 56.521439961991746 80.92701646732348 68.88996028212979 H 0.0 **** 0.06
35149 H 56.86877589643373 79.71582489631822 70.14815093676974 H 0.0 **** 0.06
35150 H 55.33589599522759 80.62079380675783 70.18291356717839 H 0.0 **** 0.06
35151 C 22.53786445706537 102.37279680289906 82.03382559646111 C 0.0 **** -0.24
35152 H 22.74401388364109 102.09775941689506 83.06807292860869 H 0.0 **** 0.06
35153 H 22.235649814229866 101.48565108893429 81.47599088496959 H 0.0 **** 0.06
35154 H 23.436473235760854 102.79581483057744 81.58468339011685 H 0.0 **** 0.06
35155 H 21.73581656812009 103.10962470058693 82.00709573645378 H 0.0 **** 0.06
35156 C 54.919990043023105 5.859332248785506 26.31544604537342 C 0.0 **** -0.24
35157 H 55.037351465726786 6.597650146206874 25.52290037726877 H 0.0 **** 0.06
35158 H 54.97740840603396 6.356682236045657 27.28430407728544 H 0.0 **** 0.06
35159 H 55.713695816097065 5.116003472009112 26.24092637882464 H 0.0 **** 0.06
35160 H 53.951834669830596 5.3693224081895465 26.215515042426063 H 0.0 **** 0.06
35161 C 54.21028503201088 49.83968886005658 17.226773745292235 C 0.0 **** -0.24
35162 H 55.158731800137254 49.48116513997567 17.626042013449478 H 0.0 **** 0.06
35163 H 54.078405469762636 50.88972100338901 17.491129691844492 H 0.0 **** 0.06
35164 H 53.3937750200415 49.25258147392228 17.648490565716088 H 0.0 **** 0.06
35165 H 54.210227838102014 49.7352878229394 16.141432710158938 H 0.0 **** 0.06
35166 C 30.51392619697367 29.53701129484284 77.89259773809368 C 0.0 **** -0.24
35167 H 30.011765328472165 30.253145001407887 78.54306117622463 H 0.0 **** 0.06
35168 H 31.389894351171506 29.135957874719836 78.40215994351587 H 0.0 **** 0.06
35169 H 30.823651096230265 30.034952895490406 76.97423053580991 H 0.0 **** 0.06
35170 H 29.829756389743523 28.723701729381958 77.65165394711238 H 0.0 **** 0.06
35171 C 2.0472716276237035 13.707066325566188 33.472100551525216 C 0.0 **** -0.24
35172 H 2.201765266665298 14.34049547065888 32.59866656110262 H 0.0 **** 0.06
35173 H 2.877791458944233 13.839101717681444 34.16669485318286 H 0.0 **** 0.06
35174 H 1.9975015194667947 12.664697231341506 33.16027170488243 H 0.0 **** 0.06
35175 H 1.1150008972388799 13.985042976760838 33.96288964651694 H 0.0 **** 0.06
35176 C 65.20777928529735 81.01411341148972 50.12510138783984 C 0.0 **** -0.24
35177 H 66.25991714372134 80.8056555152703 49.930499359076435 H 0.0 **** 0.06
35178 H 64.67661143419444 80.077558964777 50.29842260794616 H 0.0 **** 0.06
35179 H 64.77365203478169 81.52515041190988 49.26543316854968 H 0.0 **** 0.06
35180 H 65.12108816582588 81.65029388905317 51.00638896528796 H 0.0 **** 0.06
35181 C 75.56390518374624 29.244281723322416 43.38286288885221 C 0.0 **** -0.24
35182 H 75.0978152876149 30.030502771889957 42.78843845514521 H 0.0 **** 0.06
35183 H 74.9789944125624 28.328610179799597 43.29524024154615 H 0.0 **** 0.06
35184 H 75.60205356815817 29.55349309633226 44.42720273626171 H 0.0 **** 0.06
35185 H 76.57649266396828 29.066603043236512 43.01930734478348 H 0.0 **** 0.06
35186 C 47.676341901130044 42.13795818707857 103.44399430691595 C 0.0 **** -0.24
35187 H 47.83817332564479 42.55798961443068 102.45020509614903 H 0.0 **** 0.06
35188 H 48.09095902647635 42.81061925461327 104.19493135044485 H 0.0 **** 0.06
35189 H 48.168014606106134 41.16747995641566 103.51239510363945 H 0.0 **** 0.06
35190 H 46.60661205239649 42.015482335892784 103.6152293757404 H 0.0 **** 0.06
35191 C 39.54381960002274 20.704035652736962 98.3874354504822 C 0.0 **** -0.24
35192 H 39.987630466089485 20.18593238455159 97.53780871635314 H 0.0 **** 0.06
35193 H 39.55249916890676 21.778559512918434 98.20300152347465 H 0.0 **** 0.06
35194 H 40.118894101130735 20.484370916764448 99.28712175295345 H 0.0 **** 0.06
35195 H 38.51625466396399 20.36727979671332 98.52180980914778 H 0.0 **** 0.06
35196 C 104.53471530755348 59.00812781914823 87.56197911500678 C 0.0 **** -0.24
35197 H 105.21657254396243 58.158485570717346 87.55768866551009 H 0.0 **** 0.06
35198 H 104.1121715766662 59.13967940268776 86.56509810228036 H 0.0 **** 0.06
35199 H 105.07901613283732 59.90909483242774 87.84750464024992 H 0.0 **** 0.06
35200 H 103.73248494677263 58.82713444080656 88.27689066308156 H 0.0 **** 0.06
35201 C 96.85999308970926 80.59455940844384 84.62104625315578 C 0.0 **** -0.24
35202 H 97.0945869921762 79.70121185773382 85.19934248823313 H 0.0 **** 0.06
35203 H 97.12864467608645 80.43270720729367 83.57767007612699 H 0.0 **** 0.06
35204 H 97.4239410231502 81.44052885057499 85.0152279164297 H 0.0 **** 0.06
35205 H 95.7926697501911 80.80360971422886 84.69334124661782 H 0.0 **** 0.06
35206 C 35.968625880308196 55.810276955198134 72.2916054966644 C 0.0 **** -0.24
35207 H 35.08690607085319 55.189455533215835 72.44954102979678 H 0.0 **** 0.06
35208 H 36.63568905357141 55.31930801433927 71.58253500539281 H 0.0 **** 0.06
35209 H 36.48657812548103 55.95219432983714 73.24042247787698 H 0.0 **** 0.06
35210 H 35.66440545154711 56.77867536160926 71.89564701448188 H 0.0 **** 0.06
35211 C 73.00960413784455 13.480637151148898 8.00280200250196 C 0.0 **** -0.24
35212 H 73.83669414680995 14.174469801646211 7.853503435161379 H 0.0 **** 0.06
35213 H 72.91095597042934 12.839757564669895 7.12694038189732 H 0.0 **** 0.06
35214 H 72.08640778613116 14.04201589934732 8.148373733117575 H 0.0 **** 0.06
35215 H 73.205071756264 12.86725612907179 8.883156988905467 H 0.0 **** 0.06
35216 C 60.05306788337106 79.45986790479543 46.87051068274408 C 0.0 **** -0.24
35217 H 59.503382708163656 79.77188768566417 45.98197333772089 H 0.0 **** 0.06
35218 H 59.3763683153544 78.95150306183291 47.557159484124384 H 0.0 **** 0.06
35219 H 60.477892570077245 80.33558382023733 47.36001070918101 H 0.0 **** 0.06
35220 H 60.85511977101271 78.78045169096879 46.580114166205874 H 0.0 **** 0.06
35221 C 103.52439109388285 45.33595631312309 84.14350092112514 C 0.0 **** -0.24
35222 H 104.48286055831363 44.82735983864757 84.04306891538029 H 0.0 **** 0.06
35223 H 103.53408288375147 45.95363601479406 85.04223593207907 H 0.0 **** 0.06
35224 H 102.7264554442558 44.59781815779954 84.21761853830577 H 0.0 **** 0.06
35225 H 103.35563448061953 45.96648735977814 83.2702658243183 H 0.0 **** 0.06
35226 C 25.80906388791402 22.74447259440283 87.69249057256079 C 0.0 **** -0.24
35227 H 25.49142202293615 21.71947892356525 87.49835562461934 H 0.0 **** 0.06
35228 H 25.26705136356992 23.135140926698206 88.55383219721452 H 0.0 **** 0.06
35229 H 25.598649977106987 23.361022955910236 86.81945490551544 H 0.0 **** 0.06
35230 H 26.87930532242825 22.759252599916973 87.89834373947619 H 0.0 **** 0.06
35231 C 15.18095798800988 20.835997105916775 54.5332998942535 C 0.0 **** -0.24
35232 H 14.106330185965362 20.71176495233756 54.39933657440639 H 0.0 **** 0.06
35233 H 15.710308672990777 20.109131986511144 53.91634956639018 H 0.0 **** 0.06
35234 H 15.436422248748272 20.67889945108493 55.58167486934008 H 0.0 **** 0.06
35235 H 15.46978590425715 21.84407696877284 54.23570934170357 H 0.0 **** 0.06
35236 C 4.232993550517435 85.26409825198783 42.30440937791772 C 0.0 **** -0.24
35237 H 4.450293437703152 84.511100109226 43.06313880654696 H 0.0 **** 0.06
35238 H 5.086954076359547 85.9351554210053 42.20364491021755 H 0.0 **** 0.06
35239 H 3.354398567433037 85.83508253189447 42.60061438118791 H 0.0 **** 0.06
35240 H 4.042775285189023 84.77225673210901 41.34981276396289 H 0.0 **** 0.06
35241 C 3.1542462631768444 75.3284410398631 25.05591407268733 C 0.0 **** -0.24
35242 H 3.1582501037092925 76.21570889085893 25.689595751310193 H 0.0 **** 0.06
35243 H 3.317282243405998 75.62136119956872 24.018778713516127 H 0.0 **** 0.06
35244 H 2.1921284013594686 74.82375202357645 25.145154956139393 H 0.0 **** 0.06
35245 H 3.9497570835467855 74.65302417766952 25.373094422781634 H 0.0 **** 0.06
35246 C 101.64363192008452 63.84338198287429 62.98602773097994 C 0.0 **** -0.24
35247 H 102.20881378529614 63.40694629212169 63.809409807170056 H 0.0 **** 0.06
35248 H 100.92252553322835 63.11542303205124 62.61444053111708 H 0.0 **** 0.06
35249 H 102.32705094878034 64.12125863010431 62.18401857924462 H 0.0 **** 0.06
35250 H 101.11717978029357 64.73124045693112 63.3376969341798 H 0.0 **** 0.06
35251 C 21.800556267939015 91.53670244358267 61.888202811733365 C 0.0 **** -0.24
35252 H 21.366458487828112 90.57953193987265 62.178195017578744 H 0.0 **** 0.06
35253 H 22.507023447286116 91.86184546239333 62.65179880401706 H 0.0 **** 0.06
35254 H 21.007584971897558 92.27880876270115 61.786800047628105 H 0.0 **** 0.06
35255 H 22.319168100893137 91.42721487896382 60.9351865489858 H 0.0 **** 0.06
35256 C 66.75944182373667 33.73551024514322 34.293103096671246 C 0.0 **** -0.24
35257 H 67.55805337831202 34.32322834297193 34.745685383138465 H 0.0 **** 0.06
35258 H 67.08121962660834 33.37966613389696 33.31405981444564 H 0.0 **** 0.06
35259 H 65.87040480566009 34.356716209103894 34.179868454032885 H 0.0 **** 0.06
35260 H 66.52759394510332 32.88338989281357 34.93188566102731 H 0.0 **** 0.06
35261 C 38.24587306883833 92.2466660015337 6.461640014355083 C 0.0 **** -0.24
35262 H 38.89167685649768 91.54495731484252 5.93436298525998 H 0.0 **** 0.06
35263 H 37.58704534529231 91.69771645066785 7.1360169300303085 H 0.0 **** 0.06
35264 H 37.645620139555916 92.80120994078358 5.739401681337441 H 0.0 **** 0.06
35265 H 38.85695092613346 92.94287679334988 7.036384400375184 H 0.0 **** 0.06
35266 C 85.80663534745938 106.19187187064637 17.52943151852091 C 0.0 **** -0.24
35267 H 86.18896470125631 106.45012571086204 18.51735356069966 H 0.0 **** 0.06
35268 H 84.9568988114199 105.51591871463182 17.634383621426906 H 0.0 **** 0.06
35269 H 86.59172583792125 105.70177562989738 16.953356594009904 H 0.0 **** 0.06
35270 H 85.48912865476689 107.09803611883194 17.01415146555594 H 0.0 **** 0.06
35271 C 62.945098224334586 18.454395914050743 10.029888321056646 C 0.0 **** -0.24
35272 H 63.395866208476505 19.443800786652073 10.108672455643656 H 0.0 **** 0.06
35273 H 61.95340110729836 18.54093721130047 9.58493419126907 H 0.0 **** 0.06
35274 H 62.859369272756254 18.014247738583844 11.023989369077185 H 0.0 **** 0.06
35275 H 63.57040684578271 17.818426878862024 9.403994415967631 H 0.0 **** 0.06
35276 C 101.9517151866139 25.11463410193315 38.885871610056086 C 0.0 **** -0.24
35277 H 102.69653086823877 24.32117474072325 38.94882840869673 H 0.0 **** 0.06
35278 H 101.07297970495718 24.834946215953153 39.467743062519105 H 0.0 **** 0.06
35279 H 101.66610797493541 25.26354280888026 37.84389488889411 H 0.0 **** 0.06
35280 H 102.37095311775464 26.03928255588133 39.282154950513814 H 0.0 **** 0.06
35281 C 39.60386238272977 13.076268849224533 54.05314371645892 C 0.0 **** -0.24
35282 H 39.3686082016109 12.019068416855362 53.93341740873694 H 0.0 **** 0.06
35283 H 40.548001443191424 13.297752785725748 53.55416970038158 H 0.0 **** 0.06
35284 H 39.69003995159902 13.31053637172775 55.11429586071915 H 0.0 **** 0.06
35285 H 38.80946282056682 13.677614969953027 53.61143354919818 H 0.0 **** 0.06
35286 C 28.261481485293025 1.9601394632674527 51.185699800036076 C 0.0 **** -0.24
35287 H 29.2255413582469 1.5185769765868145 51.43996517743193 H 0.0 **** 0.06
35288 H 27.85573810081224 2.474034702954441 52.057507534768604 H 0.0 **** 0.06
35289 H 27.57319469610691 1.1746539285709332 50.872363694759684 H 0.0 **** 0.06
35290 H 28.392431816765004 2.673915044081241 50.37167756981552 H 0.0 **** 0.06
35291 C 39.32080798138111 85.76574441825402 45.67451175280189 C 0.0 **** -0.24
35292 H 39.92787528715297 85.68095774548041 46.575835897465026 H 0.0 **** 0.06
35293 H 39.94641149000907 86.09777962160351 44.84569174670219 H 0.0 **** 0.06
35294 H 38.52286115290826 86.48876091694237 45.84092288716283 H 0.0 **** 0.06
35295 H 38.88635539043719 84.79440618140391 45.43647662891999 H 0.0 **** 0.06
35296 C 9.001606054501963 102.33905847668635 101.80133283662376 C 0.0 **** -0.24
35297 H 10.052996220488012 102.26359203426145 102.08090804361981 H 0.0 **** 0.06
35298 H 8.833490864318264 103.27726756038952 101.2716425970122 H 0.0 **** 0.06
35299 H 8.384895465023192 102.31263474400774 102.69978570079172 H 0.0 **** 0.06
35300 H 8.737010955567087 101.50277141588091 101.15405383609621 H 0.0 **** 0.06
35301 C 18.559289505501255 106.0985981826548 0.40959775090874473 C 0.0 **** -0.24
35302 H 17.652579591381198 105.49921520792398 0.324240181942514 H 0.0 **** 0.06
35303 H 18.84768526787377 106.4623918602974 -0.5772957665997751 H 0.0 **** 0.06
35304 H 19.361729098839874 105.48573282284495 0.8199225573690114 H 0.0 **** 0.06
35305 H 18.37488792676845 106.9449590837518 1.0707890716291217 H 0.0 **** 0.06
35306 C 94.87125100506796 61.14409435809554 45.94677983537866 C 0.0 **** -0.24
35307 H 95.89416055707579 61.510771724495555 45.87072462796843 H 0.0 **** 0.06
35308 H 94.64079353893102 60.92154640619154 46.98937541547832 H 0.0 **** 0.06
35309 H 94.76437470559372 60.23904921984257 45.34976441778673 H 0.0 **** 0.06
35310 H 94.18383817510842 61.906214899245384 45.57767191294002 H 0.0 **** 0.06
35311 C 71.31719966064537 101.49259990082868 27.481370905222203 C 0.0 **** -0.24
35312 H 71.46599920711697 102.31867172136062 26.786325059568657 H 0.0 **** 0.06
35313 H 70.95481951657621 101.88071442446514 28.433280278077888 H 0.0 **** 0.06
35314 H 72.26307339827315 100.97377685869623 27.635322863665788 H 0.0 **** 0.06
35315 H 70.58469031793481 100.79860160408117 27.068532972234625 H 0.0 **** 0.06
35316 C 105.70871830860719 32.36702051375079 31.13789230153276 C 0.0 **** -0.24
35317 H 104.87853216081108 32.25482233766061 30.440799610659866 H 0.0 **** 0.06
35318 H 106.64207669487327 32.44769641312891 30.58025957905477 H 0.0 **** 0.06
35319 H 105.75125491943554 31.496835856978805 31.79416517300203 H 0.0 **** 0.06
35320 H 105.56252482277526 33.26577240552291 31.73616244181784 H 0.0 **** 0.06
35321 C 71.4781257575649 40.367328593094484 26.446016953831418 C 0.0 **** -0.24
35322 H 72.37894759530877 40.25388927897999 27.049178000478264 H 0.0 **** 0.06
35323 H 70.79436571662228 41.05644442899065 26.940986898594247 H 0.0 **** 0.06
35324 H 70.99506608785248 39.396996601775875 26.32966445316424 H 0.0 **** 0.06
35325 H 71.74563558351593 40.76039644153955 25.46533104423594 H 0.0 **** 0.06
35326 C 79.77073520863473 9.764062706986323 73.81225526152286 C 0.0 **** -0.24
35327 H 80.1674640876926 8.916368701098492 74.37018064843761 H 0.0 **** 0.06
35328 H 80.18592129487132 10.689063832141642 74.2129224048042 H 0.0 **** 0.06
35329 H 78.68487480893117 9.78368254596316 73.9037864047463 H 0.0 **** 0.06
35330 H 80.04491392270205 9.66739486153736 72.761194311619 H 0.0 **** 0.06
35331 C 16.561052110596535 38.87592813512818 69.89837586347294 C 0.0 **** -0.24
35332 H 16.742283886573546 37.89783478253499 70.34273730650048 H 0.0 **** 0.06
35333 H 15.489541298927008 39.013470114776105 69.74648253018346 H 0.0 **** 0.06
35334 H 17.07568140073434 38.939937803298164 68.93891600089131 H 0.0 **** 0.06
35335 H 16.93697162871115 39.65329463851617 70.56425091487449 H 0.0 **** 0.06
35336 C 42.385902792321815 35.35307168291624 46.904833955680544 C 0.0 **** -0.24
35337 H 43.25832616341705 35.779748489247055 46.40931291671362 H 0.0 **** 0.06
35338 H 41.67931076545773 36.14768845015837 47.145559177995324 H 0.0 **** 0.06
35339 H 42.69768237532645 34.85385400099736 47.82245474940569 H 0.0 **** 0.06
35340 H 41.90947246050956 34.63025503269358 46.24224890210425 H 0.0 **** 0.06
35341 C 91.84592012502029 73.20038613817478 50.70026544365601 C 0.0 **** -0.24
35342 H 92.7466955126029 73.32373327489809 50.09861528378241 H 0.0 **** 0.06
35343 H 90.96705215734606 73.33629300461091 50.069552233984666 H 0.0 **** 0.06
35344 H 91.83844726898808 73.94076329060468 51.499836897267016 H 0.0 **** 0.06
35345 H 91.83204980938011 72.19845594039228 51.13150932945234 H 0.0 **** 0.06
35346 C 20.46323520144159 31.627705299317114 29.46495777529475 C 0.0 **** -0.24
35347 H 19.6017778140626 31.692962283010473 30.129134992064166 H 0.0 **** 0.06
35348 H 20.94287801764753 32.60450783441948 29.395796195449066 H 0.0 **** 0.06
35349 H 20.135559133649167 31.312229197468554 28.473785243856526 H 0.0 **** 0.06
35350 H 21.172633425708824 30.901609580405008 29.861982803554042 H 0.0 **** 0.06
35351 C 85.28283935055002 42.95351613036523 48.861739936595114 C 0.0 **** -0.24
35352 H 86.23666127394672 43.48065501168034 48.83799018426254 H 0.0 **** 0.06
35353 H 84.49600372003974 43.64076876933801 49.17310021095622 H 0.0 **** 0.06
35354 H 85.34400333009495 42.12559131740727 49.56824697158174 H 0.0 **** 0.06
35355 H 85.05686590919153 42.56727645492009 47.86808073887519 H 0.0 **** 0.06
35356 C 86.8258467274587 68.63057907927856 61.55559090015154 C 0.0 **** -0.24
35357 H 85.99220812021913 68.96992772399676 62.171104439367156 H 0.0 **** 0.06
35358 H 86.59198544361935 68.79997904993317 60.50411179990155 H 0.0 **** 0.06
35359 H 86.99314440199555 67.56682170287999 61.72489372195565 H 0.0 **** 0.06
35360 H 87.72434611583932 69.18717888191782 61.82149916000765 H 0.0 **** 0.06
35361 C 38.6055183567041 25.96175263961539 101.30993803690647 C 0.0 **** -0.24
35362 H 38.297054345003694 25.131199686245367 101.94450200617347 H 0.0 **** 0.06
35363 H 39.43358192297714 25.64573467802359 100.67473796731937 H 0.0 **** 0.06
35364 H 38.92434037994691 26.797384849016765 101.93358462787535 H 0.0 **** 0.06
35365 H 37.76737339078551 26.273141630963586 100.68607856179612 H 0.0 **** 0.06
35366 C 18.76051462794598 49.04343988865807 30.193369978197666 C 0.0 **** -0.24
35367 H 19.628616793441694 49.34237811247809 30.780684431208243 H 0.0 **** 0.06
35368 H 18.791110035439942 47.96675456913849 30.022485776859583 H 0.0 **** 0.06
35369 H 18.772541438028895 49.5639569843199 29.236395077738848 H 0.0 **** 0.06
35370 H 17.85049604514211 49.29916917859188 30.735414608785447 H 0.0 **** 0.06
35371 C 63.266869067848276 20.578579392270882 27.349943864703505 C 0.0 **** -0.24
35372 H 62.755389595027395 19.72294000587607 27.790941258678288 H 0.0 **** 0.06
35373 H 63.9989558383385 20.228138427677436 26.62191925711022 H 0.0 **** 0.06
35374 H 63.77442758457005 21.14145462292501 28.133043165580546 H 0.0 **** 0.06
35375 H 62.53888732268564 21.220367245185514 26.854850352799588 H 0.0 **** 0.06
35376 C 9.607438663986002 52.6432050889112 93.55081843903048 C 0.0 **** -0.24
35377 H 10.53127255950534 53.130055558913114 93.86209199640211 H 0.0 **** 0.06
35378 H 8.932813851499148 53.38382481127229 93.11963800896058 H 0.0 **** 0.06
35379 H 9.13255561059559 52.17874776386202 94.4153959167129 H 0.0 **** 0.06
35380 H 9.831797690527932 51.87907990736329 92.80633173061813 H 0.0 **** 0.06
35381 C 25.565311570423063 32.99633474631244 79.31585193811458 C 0.0 **** -0.24
35382 H 25.587917625126323 32.04989805396161 78.7745060999716 H 0.0 **** 0.06
35383 H 24.606174316967895 33.48662479027493 79.14823892000629 H 0.0 **** 0.06
35384 H 26.36952542259428 33.63845742511825 78.95691288459079 H 0.0 **** 0.06
35385 H 25.697614626607702 32.80946257758083 80.38106710669979 H 0.0 **** 0.06
35386 C 27.51348321347217 102.77910604536822 55.58260070244094 C 0.0 **** -0.24
35387 H 27.62374448814245 102.8202912002717 54.4985684234087 H 0.0 **** 0.06
35388 H 26.620028714456552 103.3310210982666 55.87669014076053 H 0.0 **** 0.06
35389 H 28.388175279472833 103.22720756404209 56.05411160429233 H 0.0 **** 0.06
35390 H 27.42079677555023 101.7407659821186 55.89918843488414 H 0.0 **** 0.06
35391 C 3.2677087278889587 39.26225465633806 13.339856888786898 C 0.0 **** -0.24
35392 H 3.9024017443505272 39.86137064749616 12.686606148178726 H 0.0 **** 0.06
35393 H 3.3842726275170634 39.601880198216236 14.369548156236391 H 0.0 **** 0.06
35394 H 3.5583988077985254 38.21473371160931 13.26755332304407 H 0.0 **** 0.06
35395 H 2.2269751665140376 39.37316081616774 13.035789174069976 H 0.0 **** 0.06
35396 C 32.21458098592075 8.414695423750203 8.289335262903492 C 0.0 **** -0.24
35397 H 32.94828366016475 9.22062764636678 8.291161182459462 H 0.0 **** 0.06
35398 H 31.307352644111972 8.74891657442376 8.79212909833592 H 0.0 **** 0.06
35399 H 32.623447100454655 7.550300992882754 8.81232805909228 H 0.0 **** 0.06
35400 H 31.980410365366993 8.139404169901113 7.261080165501056 H 0.0 **** 0.06
35401 C 91.81898208657441 99.26658345966197 74.47735648676277 C 0.0 **** -0.24
35402 H 92.54007955809922 98.44870895194362 74.4970919401712 H 0.0 **** 0.06
35403 H 91.61828049519102 99.54938440614112 73.44473984352989 H 0.0 **** 0.06
35404 H 92.2270560950646 100.12254113188663 75.01651959407769 H 0.0 **** 0.06
35405 H 90.89256074312999 98.94496174821413 74.95288005440341 H 0.0 **** 0.06
35406 C 7.291542277297523 81.99259593272589 74.36272636899632 C 0.0 **** -0.24
35407 H 7.729625582923859 82.41104114021724 73.45666934759542 H 0.0 **** 0.06
35408 H 6.8236984828396885 82.78898019136929 74.94206395028249 H 0.0 **** 0.06
35409 H 8.072316489895599 81.51930485168347 74.95951776113071 H 0.0 **** 0.06
35410 H 6.540730705625776 81.2502067924905 74.09313959350652 H 0.0 **** 0.06
35411 C 10.99863743694344 105.66806572437508 33.51930628496007 C 0.0 **** -0.24
35412 H 11.053617891580515 104.75496691003876 32.927945703413855 H 0.0 **** 0.06
35413 H 12.004850864324652 105.98083131846444 33.79836171245381 H 0.0 **** 0.06
35414 H 10.413083980126004 105.48316347475482 34.42015812476154 H 0.0 **** 0.06
35415 H 10.523311537304735 106.45344030397438 32.931698624344904 H 0.0 **** 0.06
35416 C 96.79634833100052 18.947914694564588 64.11789828499263 C 0.0 **** -0.24
35417 H 96.18405412270755 19.036479572429016 65.01480169665984 H 0.0 **** 0.06
35418 H 97.84637224818378 19.08482797292146 64.37935632434906 H 0.0 **** 0.06
35419 H 96.49890821850613 19.709739563637413 63.397897648676775 H 0.0 **** 0.06
35420 H 96.65734262275195 17.95973115005029 63.678778223769285 H 0.0 **** 0.06
35421 C 103.18190502463096 87.92773608962159 59.41166226950705 C 0.0 **** -0.24
35422 H 104.12288705762504 88.44368056304924 59.60323427265237 H 0.0 **** 0.06
35423 H 103.38069644695915 86.99252965813145 58.88788118416559 H 0.0 **** 0.06
35424 H 102.53974622830592 88.5591721731453 58.79787057277891 H 0.0 **** 0.06
35425 H 102.68500854791662 87.71514510831466 60.358807835533355 H 0.0 **** 0.06
35426 C 93.79039028742243 78.3403329645974 58.386248111770435 C 0.0 **** -0.24
35427 H 94.49435516373312 78.93235540557751 57.80086651110261 H 0.0 **** 0.06
35428 H 93.9632737947292 78.51708724208726 59.448489604720365 H 0.0 **** 0.06
35429 H 93.93399811451931 77.28293318061964 58.16435807321394 H 0.0 **** 0.06
35430 H 92.77092872884717 78.62999839637376 58.130316864354356 H 0.0 **** 0.06
35431 C 21.277038241860282 4.722632462982176 36.748641309698854 C 0.0 **** -0.24
35432 H 20.66041777449037 5.401194906881727 36.16066780950328 H 0.0 **** 0.06
35433 H 21.623515734689164 5.232797721819878 37.647484715968204 H 0.0 **** 0.06
35434 H 22.135684098251346 4.40622794783053 36.15599621619336 H 0.0 **** 0.06
35435 H 20.689026605565118 3.8485611650068563 37.031254931422694 H 0.0 **** 0.06
35436 C 35.33942071882893 78.22930152142777 96.50735311808667 C 0.0 **** -0.24
35437 H 34.258117263955114 78.10074465266499 96.4760863040843 H 0.0 **** 0.06
35438 H 35.821924981406596 77.25112066023452 96.50813915763152 H 0.0 **** 0.06
35439 H 35.61482293294421 78.77105108023756 97.411961720016 H 0.0 **** 0.06
35440 H 35.664207520489526 78.79411253544485 95.63341789939709 H 0.0 **** 0.06
35441 C 101.87486061858422 92.8344246980091 62.66938138970184 C 0.0 **** -0.24
35442 H 102.02556878871133 91.87282730095255 62.17962107961236 H 0.0 **** 0.06
35443 H 101.1986230885304 92.70880461820808 63.5153944738847 H 0.0 **** 0.06
35444 H 101.44167280649958 93.5388596397379 61.95954730829516 H 0.0 **** 0.06
35445 H 102.83224182248172 93.21717429175851 63.02249988370548 H 0.0 **** 0.06
35446 C 48.67142224694675 27.21342188325466 63.052535673180614 C 0.0 **** -0.24
35447 H 49.0532840378242 27.694416001749826 63.953429656553965 H 0.0 **** 0.06
35448 H 47.8530991695863 27.80453854806062 62.64331927016963 H 0.0 **** 0.06
35449 H 48.31082522490021 26.21477941630639 63.29880120421683 H 0.0 **** 0.06
35450 H 49.47109212747944 27.138206477853423 62.314950097804626 H 0.0 **** 0.06
35451 C 23.2038791549557 85.36686784026082 34.221729110788516 C 0.0 **** -0.24
35452 H 23.210204775316527 84.37704284638363 33.76518209119172 H 0.0 **** 0.06
35453 H 23.10619114873427 85.26630044323917 35.30338849818119 H 0.0 **** 0.06
35454 H 22.363205722125713 85.9410433847737 33.83248584203736 H 0.0 **** 0.06
35455 H 24.135225539631648 85.88118312254494 33.98724168138344 H 0.0 **** 0.06
35456 C 30.425684310095733 54.74638949310642 86.49754405689058 C 0.0 **** -0.24
35457 H 30.598382588099696 54.86928590559472 87.5666972170551 H 0.0 **** 0.06
35458 H 29.998980677145283 53.76092695799707 86.30925349758023 H 0.0 **** 0.06
35459 H 31.37201374807023 54.840229878303546 85.96332092037618 H 0.0 **** 0.06
35460 H 29.73558334630667 55.51531092470066 86.15076432537417 H 0.0 **** 0.06
35461 C 103.76953475218707 19.64604783216336 61.858151842857694 C 0.0 **** -0.24
35462 H 104.23419658758642 19.422996564924574 60.897638321398404 H 0.0 **** 0.06
35463 H 103.07273490805713 18.849638751276785 62.1175901100205 H 0.0 **** 0.06
35464 H 103.23200920751921 20.592633635796716 61.7898409172966 H 0.0 **** 0.06
35465 H 104.54007551120718 19.720892166328383 62.62522482159511 H 0.0 **** 0.06
35466 C 97.18248430567438 60.09661380205663 35.38146203711119 C 0.0 **** -0.24
35467 H 97.69234560196485 59.99559026524409 36.33920019532866 H 0.0 **** 0.06
35468 H 97.91983043880097 60.21824584029162 34.588586895943024 H 0.0 **** 0.06
35469 H 96.52969114939617 60.969544257254185 35.409359360206395 H 0.0 **** 0.06
35470 H 96.58739476550511 59.20392298505319 35.19131417510303 H 0.0 **** 0.06
35471 C 97.16240810393614 88.52382792050331 12.60382810150216 C 0.0 **** -0.24
35472 H 96.43677739864607 88.63971402949967 11.798305767663209 H 0.0 **** 0.06
35473 H 96.748468235447 88.93162726679851 13.526361143647478 H 0.0 **** 0.06
35474 H 98.07772439788958 89.0582035011723 12.347905138771495 H 0.0 **** 0.06
35475 H 97.38611420246275 87.46628673127019 12.741544802188912 H 0.0 **** 0.06
35476 C 31.710545780708003 77.23024873839714 52.88673671278844 C 0.0 **** -0.24
35477 H 31.703378821349986 76.30742940021375 52.30639472159047 H 0.0 **** 0.06
35478 H 31.94420865199757 78.06949673417316 52.23114446097466 H 0.0 **** 0.06
35479 H 32.46432628867055 77.15990303299023 53.67020278216751 H 0.0 **** 0.06
35480 H 30.730196393340677 77.38268594933223 53.33753007634298 H 0.0 **** 0.06
35481 C 65.95993782292749 27.14743470894659 103.4920186961756 C 0.0 **** -0.24
35482 H 64.89537395267484 26.911821143131135 103.49824407856293 H 0.0 **** 0.06
35483 H 66.13741602259239 28.043072380181236 104.0873264784769 H 0.0 **** 0.06
35484 H 66.28735203892205 27.320795839111295 102.46707843398578 H 0.0 **** 0.06
35485 H 66.51824827278409 26.31202636500012 103.91519132630619 H 0.0 **** 0.06
35486 C 63.39679395641815 5.778710376436948 80.23790079420009 C 0.0 **** -0.24
35487 H 63.0816297123157 6.745172792065944 80.63127797536548 H 0.0 **** 0.06
35488 H 64.14461598982456 5.343433814609284 80.90082177844124 H 0.0 **** 0.06
35489 H 63.824330868600896 5.912586192393661 79.24401791335964 H 0.0 **** 0.06
35490 H 62.53471285923109 5.113372925172413 80.17702360329504 H 0.0 **** 0.06
35491 C 33.2933093868319 105.94092029455746 65.26954549500125 C 0.0 **** -0.24
35492 H 32.49528397485887 105.51875010314895 65.88181632034484 H 0.0 **** 0.06
35493 H 33.82956637466289 106.69671054618335 65.84262943735347 H 0.0 **** 0.06
35494 H 32.862786254239985 106.39835887300326 64.37772007950876 H 0.0 **** 0.06
35495 H 33.9825816819868 105.1490375994306 64.97491819152827 H 0.0 **** 0.06
35496 C 24.247649836132467 16.356963801500513 27.083905256621236 C 0.0 **** -0.24
35497 H 24.17283110024067 15.988672893501786 28.107043892699465 H 0.0 **** 0.06
35498 H 25.283689820836884 16.292538989749232 26.748980825255927 H 0.0 **** 0.06
35499 H 23.917124429655928 17.395240987509737 27.045929265930127 H 0.0 **** 0.06
35500 H 23.617638877575644 15.750904700818296 26.432534176196313 H 0.0 **** 0.06
35501 C 73.37520292391599 39.125237448705974 18.41121184829518 C 0.0 **** -0.24
35502 H 72.68195950435387 39.9657276890554 18.437921527017693 H 0.0 **** 0.06
35503 H 74.29933631991457 39.433010446360555 17.921164919959693 H 0.0 **** 0.06
35504 H 72.92597260168799 38.302586196073264 17.855278651408838 H 0.0 **** 0.06
35505 H 73.5926889977298 38.80083542906115 19.428531274903065 H 0.0 **** 0.06
35506 C 32.22908780471954 31.45882447247793 29.38646463797403 C 0.0 **** -0.24
35507 H 31.906179262735975 32.2855329554386 30.01902519107807 H 0.0 **** 0.06
35508 H 32.248480678479424 30.5395601376959 29.971998338414636 H 0.0 **** 0.06
35509 H 33.22847655345123 31.66503898330224 29.001647186656612 H 0.0 **** 0.06
35510 H 31.535085056954415 31.345742791099866 28.554269123170144 H 0.0 **** 0.06
35511 C 48.8436495476746 90.77143159876286 87.63031532476828 C 0.0 **** -0.24
35512 H 49.042818841396496 90.62256706181839 88.69166807403792 H 0.0 **** 0.06
35513 H 47.77891891540489 90.9531895358048 87.48316420765997 H 0.0 **** 0.06
35514 H 49.140366336452814 89.88042799507022 87.07716848766773 H 0.0 **** 0.06
35515 H 49.41251885402548 91.62865959297861 87.27075090948023 H 0.0 **** 0.06
35516 C 95.37615579210089 72.83032822749007 60.08909805027317 C 0.0 **** -0.24
35517 H 96.18471921004762 73.13656261699195 60.75281817503729 H 0.0 **** 0.06
35518 H 94.82286094663284 73.71059320928158 59.759986915634016 H 0.0 **** 0.06
35519 H 94.70398416054722 72.15669575671595 60.622037417542415 H 0.0 **** 0.06
35520 H 95.79305885117586 72.31746132697089 59.22154969287905 H 0.0 **** 0.06
35521 C 83.58004096944364 45.66136206938757 56.78391259884586 C 0.0 **** -0.24
35522 H 83.8741863589446 44.95211106190415 56.00990922015444 H 0.0 **** 0.06
35523 H 83.34746520982418 46.62226298872963 56.32548199069811 H 0.0 **** 0.06
35524 H 84.39907265508305 45.784816302353285 57.493441260140514 H 0.0 **** 0.06
35525 H 82.70077227189813 45.28457633144747 57.30618815922395 H 0.0 **** 0.06
35526 C 19.64734844529653 56.519428939934485 28.61049838652781 C 0.0 **** -0.24
35527 H 20.7346926137173 56.49322104004442 28.53818989014775 H 0.0 **** 0.06
35528 H 19.35209483836354 57.203655538042064 29.406626533267882 H 0.0 **** 0.06
35529 H 19.274413018267865 55.51965871456257 28.832946967320225 H 0.0 **** 0.06
35530 H 19.229075111712802 56.86199967663094 27.66348758212061 H 0.0 **** 0.06
35531 C 12.593803055201022 82.36281852299285 102.0000288658502 C 0.0 **** -0.24
35532 H 12.082180177259175 81.4745754204589 102.36948101241222 H 0.0 **** 0.06
35533 H 13.34490574627992 82.67691737458715 102.72548211167992 H 0.0 **** 0.06
35534 H 11.86989711964273 83.16490781330128 101.85508512639981 H 0.0 **** 0.06
35535 H 13.078180436021427 82.13412754725167 101.05126775248806 H 0.0 **** 0.06
35536 C 47.19346945901954 34.917436414103776 57.649387598089376 C 0.0 **** -0.24
35537 H 46.14470596446366 34.71143877605144 57.433165817447865 H 0.0 **** 0.06
35538 H 47.26124369310627 35.61578711049742 58.484430551185945 H 0.0 **** 0.06
35539 H 47.665604888595844 35.35508818688305 56.769770196798206 H 0.0 **** 0.06
35540 H 47.69920086641236 33.987595900673654 57.90971061274352 H 0.0 **** 0.06
35541 C 71.50912858812214 5.446643936188067 3.240934469621493 C 0.0 **** -0.24
35542 H 71.34247852957262 6.068700565703523 2.3611998274776056 H 0.0 **** 0.06
35543 H 72.29769040615687 5.886052691495621 3.8528184192774546 H 0.0 **** 0.06
35544 H 71.80687655070048 4.446743825783969 2.9276445746490083 H 0.0 **** 0.06
35545 H 70.58900241961263 5.386338629051934 3.822516647680999 H 0.0 **** 0.06
35546 C 14.758353953587005 72.04570831071618 72.53188175751865 C 0.0 **** -0.24
35547 H 14.763626724916776 72.23723921734808 73.60551152441562 H 0.0 **** 0.06
35548 H 13.79723195344826 72.34902500110616 72.11463929346186 H 0.0 **** 0.06
35549 H 14.914456045551105 70.98290833875603 72.35226000207288 H 0.0 **** 0.06
35550 H 15.556255125280074 72.61693577022862 72.05732236256779 H 0.0 **** 0.06
35551 C 29.820613615364074 104.74292368456929 90.09115758575942 C 0.0 **** -0.24
35552 H 30.505043587319356 103.89601476978908 90.1233685766077 H 0.0 **** 0.06
35553 H 28.84251523849227 104.43522618999276 90.46279529532596 H 0.0 **** 0.06
35554 H 29.725080401204046 105.09349460685573 89.06337883896235 H 0.0 **** 0.06
35555 H 30.209561331389004 105.54834063289223 90.71492273779927 H 0.0 **** 0.06
35556 C 96.70197824429283 99.10112053630357 82.46516761856725 C 0.0 **** -0.24
35557 H 97.64701815645446 99.58797136918356 82.22815189072328 H 0.0 **** 0.06
35558 H 95.90191246599966 99.84251498025132 82.46813635373927 H 0.0 **** 0.06
35559 H 96.77048179354176 98.63521352937913 83.4480499202116 H 0.0 **** 0.06
35560 H 96.48817507775709 98.33917683563952 81.71501379992233 H 0.0 **** 0.06
35561 C 29.28906498164389 54.811700204992135 79.45915387259565 C 0.0 **** -0.24
35562 H 30.16030217659778 54.157236018701035 79.4212841100243 H 0.0 **** 0.06
35563 H 28.562832983096598 54.49359692689273 78.70990479363701 H 0.0 **** 0.06
35564 H 29.596692240565403 55.83705661135852 79.25427973960431 H 0.0 **** 0.06
35565 H 28.83725935271282 54.758731532924145 80.44884807973197 H 0.0 **** 0.06
35566 C 11.773003593550479 55.453702669638346 91.38924477607223 C 0.0 **** -0.24
35567 H 12.84635612041522 55.642997034643656 91.35647673272538 H 0.0 **** 0.06
35568 H 11.268348033570083 56.10457327435995 90.67547036193358 H 0.0 **** 0.06
35569 H 11.399282432573703 55.65439824918286 92.39343126086608 H 0.0 **** 0.06
35570 H 11.581328697849722 54.412727077873 91.13129865017493 H 0.0 **** 0.06
35571 C 39.35769821705034 97.70286880350588 77.32473532892291 C 0.0 **** -0.24
35572 H 38.95617917162198 97.46962367317363 76.33915386529122 H 0.0 **** 0.06
35573 H 40.10585315264366 96.95820208193152 77.59724109545357 H 0.0 **** 0.06
35574 H 38.551083814439295 97.69298037039994 78.05720313821857 H 0.0 **** 0.06
35575 H 39.81960841125044 98.69047323843691 77.30384972262519 H 0.0 **** 0.06
35576 C 73.10174225716803 53.707375923832316 57.49909334752909 C 0.0 **** -0.24
35577 H 72.96495455375863 54.78953083970173 57.50737884527053 H 0.0 **** 0.06
35578 H 72.6801747097713 53.29448342088195 56.58280885226812 H 0.0 **** 0.06
35579 H 72.59628665745078 53.27208611382304 58.36116824381926 H 0.0 **** 0.06
35580 H 74.16612538027638 53.47625430016637 57.546612731795086 H 0.0 **** 0.06
35581 C 11.729760277050879 50.72224740780409 84.19652758945313 C 0.0 **** -0.24
35582 H 11.568884266214706 51.36305375996542 83.32945040360323 H 0.0 **** 0.06
35583 H 10.828846266705451 50.13726245662081 84.38737402037049 H 0.0 **** 0.06
35584 H 11.954524906627325 51.337496688438165 85.06738972623049 H 0.0 **** 0.06
35585 H 12.564821602014693 50.049516150946424 84.00035175090318 H 0.0 **** 0.06
35586 C 25.12383525970491 30.414423037198503 91.04758169259875 C 0.0 **** -0.24
35587 H 25.763506346195438 30.836703878337374 90.27306928737832 H 0.0 **** 0.06
35588 H 25.070613584364118 31.103159251938308 91.89056364585772 H 0.0 **** 0.06
35589 H 25.536883521949203 29.462590273139938 91.38088367331903 H 0.0 **** 0.06
35590 H 24.123058059124936 30.25478325578146 90.6440337715274 H 0.0 **** 0.06
35591 C 97.8247484645122 25.13963617853622 50.72689510377824 C 0.0 **** -0.24
35592 H 98.48479602999655 25.29566023925895 51.580327246694374 H 0.0 **** 0.06
35593 H 96.86411185912283 25.61887899539809 50.91744004448312 H 0.0 **** 0.06
35594 H 97.67502297259685 24.070806221579744 50.576410958776364 H 0.0 **** 0.06
35595 H 98.27710956260663 25.572788439360664 49.8342040534611 H 0.0 **** 0.06
35596 C 95.9648303052852 6.856201957553555 58.80093540015827 C 0.0 **** -0.24
35597 H 96.27566701304414 7.859262674409226 59.09129620787914 H 0.0 **** 0.06
35598 H 94.93400991931497 6.690886173912423 59.11370962300663 H 0.0 **** 0.06
35599 H 96.61291420567431 6.12136912735401 59.27926238934481 H 0.0 **** 0.06
35600 H 96.03643009049028 6.754161780654634 57.717698575210306 H 0.0 **** 0.06
35601 C 94.31685315079869 98.27754490963264 9.199371801015388 C 0.0 **** -0.24
35602 H 95.22655037815855 97.67871181100116 9.162635524282393 H 0.0 **** 0.06
35603 H 93.84479420849894 98.2817569062118 8.21697050051074 H 0.0 **** 0.06
35604 H 94.56573383456046 99.2985040171734 9.487674734949906 H 0.0 **** 0.06
35605 H 93.63061197327178 97.84991757608736 9.930716892409578 H 0.0 **** 0.06
35606 C 46.1635045437357 101.32906348695523 32.04632994110504 C 0.0 **** -0.24
35607 H 45.445251060954625 101.81795617029711 32.70446107019018 H 0.0 **** 0.06
35608 H 45.701602741197334 101.14491219784631 31.07610895729836 H 0.0 **** 0.06
35609 H 46.47379613122362 100.38184376868139 32.486819007101126 H 0.0 **** 0.06
35610 H 47.03445365179599 101.97244434345849 31.917844637520936 H 0.0 **** 0.06
35611 C 99.71680250892963 77.81543010145015 24.840970526587967 C 0.0 **** -0.24
35612 H 99.56232341417984 77.12202891942077 25.667440550109916 H 0.0 **** 0.06
35613 H 98.75121835218852 78.142353596813 24.45599268153802 H 0.0 **** 0.06
35614 H 100.27560817534103 77.3168587600732 24.048272221489356 H 0.0 **** 0.06
35615 H 100.28036988265185 78.68015030648084 25.192922996393293 H 0.0 **** 0.06
35616 C 11.136643079574185 16.476660117486404 68.13946945281816 C 0.0 **** -0.24
35617 H 10.585587711083974 16.14349002755131 69.019064468024 H 0.0 **** 0.06
35618 H 10.445213404372168 16.608864182590935 67.30731514409834 H 0.0 **** 0.06
35619 H 11.885341544265316 15.729619283047782 67.87607373712089 H 0.0 **** 0.06
35620 H 11.629842834656472 17.4241727030913 68.35832476299043 H 0.0 **** 0.06
35621 C 89.87311669637994 13.89561820084623 56.960186308529984 C 0.0 **** -0.24
35622 H 89.70354708748789 13.126896714886087 57.71412140662147 H 0.0 **** 0.06
35623 H 90.52953546486643 13.504206546270211 56.18271602301627 H 0.0 **** 0.06
35624 H 90.33769771440538 14.76464311950292 57.425735296999335 H 0.0 **** 0.06
35625 H 88.91925215919466 14.186995251289972 56.51821610791998 H 0.0 **** 0.06
35626 C 22.6628269727274 4.6157358689475245 10.665999430399893 C 0.0 **** -0.24
35627 H 23.526467979857813 5.246593199601875 10.455609441878721 H 0.0 **** 0.06
35628 H 22.661771877148993 4.341367962538641 11.720688401155314 H 0.0 **** 0.06
35629 H 22.713869818431363 3.7153000493198647 10.054484398021856 H 0.0 **** 0.06
35630 H 21.74916426618512 5.162419402416617 10.431092399029609 H 0.0 **** 0.06
35631 C 19.478943615639025 71.2363175578784 74.44457689139105 C 0.0 **** -0.24
35632 H 20.449143513235413 71.64618687871435 74.72487493647373 H 0.0 **** 0.06
35633 H 19.026085542286808 71.86634181224528 73.67862797757797 H 0.0 **** 0.06
35634 H 18.830148769475045 71.20481333051004 75.31960627121151 H 0.0 **** 0.06
35635 H 19.61043785253952 70.22616414805086 74.0538248385831 H 0.0 **** 0.06
35636 C 49.99979435571424 48.91413770853371 23.469918618933956 C 0.0 **** -0.24
35637 H 50.4695908266562 47.931462246978086 23.51451606002967 H 0.0 **** 0.06
35638 H 49.93211503577783 49.33028662300545 24.47557280595376 H 0.0 **** 0.06
35639 H 48.999949069665035 48.81975954029907 23.047460544102954 H 0.0 **** 0.06
35640 H 50.59882877999735 49.57455183287194 22.842355328562103 H 0.0 **** 0.06
35641 C 6.9247239236938185 41.516899744192784 62.43761651830067 C 0.0 **** -0.24
35642 H 7.45738240777689 41.188618035856734 63.329518819596586 H 0.0 **** 0.06
35643 H 5.882438667680788 41.71593608652287 62.68958228847836 H 0.0 **** 0.06
35644 H 6.973161165943054 40.73708493737331 61.67761098792417 H 0.0 **** 0.06
35645 H 7.386318507009946 42.42682422976907 62.05405220709744 H 0.0 **** 0.06
35646 C 4.143679064879088 66.32990878983486 13.517660637247644 C 0.0 **** -0.24
35647 H 4.207484434902295 65.29331989388638 13.849586944162965 H 0.0 **** 0.06
35648 H 4.895030020278073 66.51069142534323 12.748480474899822 H 0.0 **** 0.06
35649 H 4.321177215913509 66.99333928425727 14.363243292046178 H 0.0 **** 0.06
35650 H 3.151201966688383 66.51881830535393 13.108354984228725 H 0.0 **** 0.06
35651 C 35.36871625069204 105.63258674161003 40.01498589796017 C 0.0 **** -0.24
35652 H 35.855534204862906 105.78735348072945 40.978539893378866 H 0.0 **** 0.06
35653 H 35.427477481442715 106.54887848099185 39.42756503217129 H 0.0 **** 0.06
35654 H 34.32389422322965 105.36815511121637 40.17497811128055 H 0.0 **** 0.06
35655 H 35.871072716672565 104.82614285886652 39.48066955234941 H 0.0 **** 0.06
35656 C 7.68560163898141 75.24866954632773 81.62243093055048 C 0.0 **** -0.24
35657 H 7.009741662790148 74.40588747247318 81.47799628136579 H 0.0 **** 0.06
35658 H 8.518992714101486 75.17042126578644 80.92351156604136 H 0.0 **** 0.06
35659 H 8.065435135577857 75.23857843220719 82.6440734280786 H 0.0 **** 0.06
35660 H 7.147507996139566 76.17917856170959 81.44383677169793 H 0.0 **** 0.06
35661 C 2.3938362839329894 69.45018751608399 67.24578268805902 C 0.0 **** -0.24
35662 H 2.8721181101359177 70.27120262502481 66.7111188500333 H 0.0 **** 0.06
35663 H 1.9530588446968062 68.75759484657391 66.52837180469089 H 0.0 **** 0.06
35664 H 1.613548329832864 69.84632402443378 67.89481984645943 H 0.0 **** 0.06
35665 H 3.1361585025087235 68.92669439903398 67.84690938930913 H 0.0 **** 0.06
35666 C 94.70232576897996 31.944412287829955 54.47998237530521 C 0.0 **** -0.24
35667 H 94.84855794962571 31.202998603414194 53.69458337020228 H 0.0 **** 0.06
35668 H 94.3519095975802 31.448413610865863 55.385288146597645 H 0.0 **** 0.06
35669 H 93.961818302834 32.67618589824075 54.15575896057402 H 0.0 **** 0.06
35670 H 95.64671028155519 32.44931649266513 54.68369381875226 H 0.0 **** 0.06
35671 C 55.84029840743196 100.52365001315879 50.400539009766135 C 0.0 **** -0.24
35672 H 55.177117260165545 99.70816834590455 50.10976558963176 H 0.0 **** 0.06
35673 H 56.81584651864259 100.38228031240438 49.93345199630363 H 0.0 **** 0.06
35674 H 55.95420375719763 100.53110493186925 51.48384996846016 H 0.0 **** 0.06
35675 H 55.41532328314895 101.47231489722026 50.072124936386274 H 0.0 **** 0.06
35676 C 99.28473530302054 33.48182737261352 54.014166467699624 C 0.0 **** -0.24
35677 H 99.75905393918083 34.4416115822425 53.81226363077997 H 0.0 **** 0.06
35678 H 99.97953719842747 32.67588014325054 53.77552835324437 H 0.0 **** 0.06
35679 H 98.38872010663563 33.382803057758636 53.40118631011413 H 0.0 **** 0.06
35680 H 99.0125425472239 33.425545442690236 55.067780306387704 H 0.0 **** 0.06
35681 C 60.810549115171796 71.70529585152815 73.70705228120846 C 0.0 **** -0.24
35682 H 61.34859725020269 72.54189253257778 74.15375905676409 H 0.0 **** 0.06
35683 H 60.56991619344683 70.97471849716453 74.47975485129852 H 0.0 **** 0.06
35684 H 61.435117216779005 71.237469053023 72.9458469914651 H 0.0 **** 0.06
35685 H 59.89037431294415 72.0692704762049 73.24986466260836 H 0.0 **** 0.06
35686 C 16.910734431632847 33.248335925925005 73.51807153526184 C 0.0 **** -0.24
35687 H 16.250862689005686 34.02156968703076 73.91101240078058 H 0.0 **** 0.06
35688 H 17.167320477501192 32.550776527893106 74.31560160486535 H 0.0 **** 0.06
35689 H 17.82035039176185 33.70973811179738 73.13205652208907 H 0.0 **** 0.06
35690 H 16.405682354884163 32.71390945803853 72.71420189291118 H 0.0 **** 0.06
35691 C 20.353909193082387 99.0662919180952 101.18744325575153 C 0.0 **** -0.24
35692 H 20.98609253442453 99.25734340404458 102.05410883218953 H 0.0 **** 0.06
35693 H 20.925161625363216 98.52642645509823 100.4328045281997 H 0.0 **** 0.06
35694 H 20.008275458334765 100.01426119184077 100.77401934822781 H 0.0 **** 0.06
35695 H 19.49449137141221 98.46810077646246 101.49040872991401 H 0.0 **** 0.06
35696 C 14.357426808708055 88.86462668302484 94.92881864039276 C 0.0 **** -0.24
35697 H 14.433130096138427 89.02416673125782 93.8525901541129 H 0.0 **** 0.06
35698 H 15.025911184922165 89.55427499465273 95.44606774979592 H 0.0 **** 0.06
35699 H 14.639343466676166 87.83895137474909 95.16432620754355 H 0.0 **** 0.06
35700 H 13.331601406805305 89.04290086849045 95.25097583315534 H 0.0 **** 0.06
35701 C 4.932671064765808 24.367224357585783 6.421877697617788 C 0.0 **** -0.24
35702 H 4.58658581362204 24.59457636752174 7.429997112378469 H 0.0 **** 0.06
35703 H 5.256469606132532 23.327702563770657 6.375266218198449 H 0.0 **** 0.06
35704 H 5.7689926001556255 25.020169508677824 6.169004803336021 H 0.0 **** 0.06
35705 H 4.120097527521471 24.52816780647464 5.71419690170568 H 0.0 **** 0.06
35706 C 52.26673021925476 78.63300489045818 97.02475963408787 C 0.0 **** -0.24
35707 H 53.24605814894906 78.66250898493061 96.54660166417827 H 0.0 **** 0.06
35708 H 51.81444054902268 79.62366370260341 96.98616106110515 H 0.0 **** 0.06
35709 H 52.37992177959627 78.32480999962294 98.06448475182617 H 0.0 **** 0.06
35710 H 51.62860141509263 77.92046961182226 96.50230504014544 H 0.0 **** 0.06
35711 C 65.14204868412651 19.242378456182067 43.73833304383527 C 0.0 **** -0.24
35712 H 66.18202955837626 19.041969617941334 43.48096020208129 H 0.0 **** 0.06
35713 H 64.96511781573673 18.961408449227918 44.77761266636065 H 0.0 **** 0.06
35714 H 64.48861601244164 18.659902202870796 43.08862628108204 H 0.0 **** 0.06
35715 H 64.93270345712642 20.303497347355062 43.60798765075043 H 0.0 **** 0.06
35716 C 12.759460963064924 39.284920302385956 6.7344051194596375 C 0.0 **** -0.24
35717 H 12.404283404953816 40.19557410565949 6.252528331185204 H 0.0 **** 0.06
35718 H 13.775698527859134 39.07187457829997 6.403927580690436 H 0.0 **** 0.06
35719 H 12.107276736967577 38.4532734071405 6.465857302488274 H 0.0 **** 0.06
35720 H 12.749682155703965 39.419265055773394 7.816351790683768 H 0.0 **** 0.06
35721 C 63.856727988361044 29.03018734653017 81.09102645962261 C 0.0 **** -0.24
35722 H 63.683464340892456 27.996202665083445 81.38963004929373 H 0.0 **** 0.06
35723 H 64.79703407334873 29.09753760528241 80.54381524014988 H 0.0 **** 0.06
35724 H 63.90560534334483 29.660171167216163 81.97863169365935 H 0.0 **** 0.06
35725 H 63.03995588738047 29.36460713680532 80.45257413105774 H 0.0 **** 0.06
35726 C 31.857980368956845 62.66262729937654 58.5168553452537 C 0.0 **** -0.24
35727 H 31.19115723062086 63.489117783461865 58.270000903110486 H 0.0 **** 0.06
35728 H 32.68663536959997 62.64124194859207 57.807785992521985 H 0.0 **** 0.06
35729 H 31.308128090396337 61.723553126294505 58.462048092076714 H 0.0 **** 0.06
35730 H 32.24588792659381 62.798374931444755 59.52590587294043 H 0.0 **** 0.06
35731 C 18.996413879387966 95.11957059990512 50.84979874429021 C 0.0 **** -0.24
35732 H 20.021588515351745 94.76818803978506 50.96069918291238 H 0.0 **** 0.06
35733 H 18.996394929034427 96.19814768035411 50.6951858456282 H 0.0 **** 0.06
35734 H 18.43172900133459 94.88119569658603 51.75118051958563 H 0.0 **** 0.06
35735 H 18.535296457425464 94.62861084857776 49.992173532928746 H 0.0 **** 0.06
35736 C 32.45661156903731 85.28767150709726 99.16363535226209 C 0.0 **** -0.24
35737 H 33.27475406438384 85.39681203755325 99.87499101016999 H 0.0 **** 0.06
35738 H 31.623369225063243 84.77499284596851 99.64475022106171 H 0.0 **** 0.06
35739 H 32.79574256047772 84.70594269409156 98.306247758582 H 0.0 **** 0.06
35740 H 32.13243111073564 86.27391456253648 98.82839444213595 H 0.0 **** 0.06
35741 C 35.03396984043735 84.80748878276877 52.421195114220005 C 0.0 **** -0.24
35742 H 35.6153993293176 85.1309867364359 53.284695862254054 H 0.0 **** 0.06
35743 H 34.8684157670784 85.65569697698035 51.756232364482926 H 0.0 **** 0.06
35744 H 34.07364801625138 84.41582188078735 52.756175302782786 H 0.0 **** 0.06
35745 H 35.57771407060247 84.02816156905641 51.887675674424045 H 0.0 **** 0.06
35746 C 89.00747294575261 106.04651119982896 14.724358509263226 C 0.0 **** -0.24
35747 H 89.3418103647377 106.99924526496075 14.31417320750019 H 0.0 **** 0.06
35748 H 88.67150994029662 105.39987278019251 13.912839323832685 H 0.0 **** 0.06
35749 H 88.18301195867022 106.21878722185615 15.416590250212565 H 0.0 **** 0.06
35750 H 89.83198701502197 105.56861352423776 15.252689876464586 H 0.0 **** 0.06
35751 C 60.95908320864372 57.05097344846635 27.718381971238614 C 0.0 **** -0.24
35752 H 60.27568622148251 57.267043234709746 26.897076230381344 H 0.0 **** 0.06
35753 H 61.85475745508269 56.5671007451804 27.32735689261503 H 0.0 **** 0.06
35754 H 60.469888869858565 56.38893813846846 28.433201442121003 H 0.0 **** 0.06
35755 H 61.235233839013105 57.98167730174339 28.214603596967123 H 0.0 **** 0.06
35756 C 87.45925905469004 59.44540856538805 41.23760076972097 C 0.0 **** -0.24
35757 H 88.44101930639233 59.21393353799408 41.651529335911626 H 0.0 **** 0.06
35758 H 87.14851269503059 58.64349638064954 40.56836820372353 H 0.0 **** 0.06
35759 H 87.51161379777656 60.38276518904621 40.682830279874274 H 0.0 **** 0.06
35760 H 86.73730843721422 59.54356701751607 42.04888430469552 H 0.0 **** 0.06
35761 C 16.954201728151705 42.46456611558929 14.685123857794338 C 0.0 **** -0.24
35762 H 17.37049223986369 42.358047705778546 15.68603327928821 H 0.0 **** 0.06
35763 H 15.865213697462512 42.442282826510535 14.74011741907566 H 0.0 **** 0.06
35764 H 17.303853022624367 41.64603242137437 14.056780620882535 H 0.0 **** 0.06
35765 H 17.275978724648244 43.41512384814578 14.257485745504482 H 0.0 **** 0.06
35766 C 23.781972691423515 54.738749805140934 104.26909337757314 C 0.0 **** -0.24
35767 H 23.47977447189595 53.84966897127077 103.7167328445632 H 0.0 **** 0.06
35768 H 23.423474475749995 54.666509062583906 105.29722184006734 H 0.0 **** 0.06
35769 H 23.354968425719317 55.622583815178984 103.79658364724811 H 0.0 **** 0.06
35770 H 24.869818521001985 54.81453621876461 104.26830204512477 H 0.0 **** 0.06
35771 C 33.42651004087483 58.19000745814128 5.770338670411917 C 0.0 **** -0.24
35772 H 33.1925993256196 58.9807069868682 5.057127087283192 H 0.0 **** 0.06
35773 H 34.50766973955922 58.07723108809955 5.8464495897047755 H 0.0 **** 0.06
35774 H 32.985782662696266 57.25293892691178 5.430548089254032 H 0.0 **** 0.06
35775 H 33.01766251138912 58.44990181636814 6.747401301481489 H 0.0 **** 0.06
35776 C 96.36707832308741 53.502644612294134 93.99525899775597 C 0.0 **** -0.24
35777 H 96.82738648008876 54.109309742517944 93.2145762279945 H 0.0 **** 0.06
35778 H 95.36702996695544 53.203700474380426 93.68071105389191 H 0.0 **** 0.06
35779 H 96.30070350700481 54.08466319084182 94.91478577382577 H 0.0 **** 0.06
35780 H 96.97319932879287 52.61398407027513 94.17004874005072 H 0.0 **** 0.06
35781 C 40.06237254435183 8.50186770559634 13.441805584421957 C 0.0 **** -0.24
35782 H 39.62529982924184 7.52810224513604 13.66173501583944 H 0.0 **** 0.06
35783 H 40.85904063034255 8.711438086838825 14.157271889258482 H 0.0 **** 0.06
35784 H 39.293933373171484 9.271297141494301 13.517847019554608 H 0.0 **** 0.06
35785 H 40.47229270922546 8.496437065378984 12.431711190090994 H 0.0 **** 0.06
35786 C 30.809359042098123 59.64125230526157 25.939710452333145 C 0.0 **** -0.24
35787 H 29.906954945700022 59.83507556193369 25.360228717766006 H 0.0 **** 0.06
35788 H 31.40217390622297 60.55386559753582 26.004334285150776 H 0.0 **** 0.06
35789 H 31.394678782631047 58.86157784849341 25.450599703535858 H 0.0 **** 0.06
35790 H 30.53470964431162 59.313964190913794 26.941793703436247 H 0.0 **** 0.06
35791 C 5.785188708165068 89.29067759347333 74.15860946911636 C 0.0 **** -0.24
35792 H 5.087557787399549 89.39722934775708 74.98870493542637 H 0.0 **** 0.06
35793 H 6.433232628204687 90.16610136671866 74.11343188105297 H 0.0 **** 0.06
35794 H 5.22827300702922 89.201803894584 73.22534309883457 H 0.0 **** 0.06
35795 H 6.390547433414618 88.39571840743477 74.30646625875858 H 0.0 **** 0.06
35796 C 25.480202859383382 8.555382187124223 83.25709025010747 C 0.0 **** -0.24
35797 H 26.506675304218604 8.244587021965629 83.44785797497147 H 0.0 **** 0.06
35798 H 25.45240735784151 9.631684082214065 83.08486254355961 H 0.0 **** 0.06
35799 H 24.859456464991354 8.309132943106647 84.11912155763324 H 0.0 **** 0.06
35800 H 25.101323416961208 8.036174830353104 82.37620726066001 H 0.0 **** 0.06
35801 C 70.05472747556064 18.43740579672422 83.72049903336236 C 0.0 **** -0.24
35802 H 69.62803846576986 18.19122819283041 84.69231832590444 H 0.0 **** 0.06
35803 H 69.31941078217903 18.982701465737023 83.12862851340361 H 0.0 **** 0.06
35804 H 70.33065608638 17.51886843775921 83.20257990019152 H 0.0 **** 0.06
35805 H 70.94119367056936 19.056684931473285 83.86015138464401 H 0.0 **** 0.06
35806 C 16.502130754474848 3.8643308178315587 34.91128992027327 C 0.0 **** -0.24
35807 H 15.950953029149474 3.6907322900306774 33.986664910543496 H 0.0 **** 0.06
35808 H 16.0416029420187 4.6869455387410355 35.45947776844298 H 0.0 **** 0.06
35809 H 17.534919235347104 4.118619712895275 34.675498139020824 H 0.0 **** 0.06
35810 H 16.4790964323835 2.9616029546742766 35.52215533546714 H 0.0 **** 0.06
35811 C 54.596404509758536 8.968940410487704 50.614481860020476 C 0.0 **** -0.24
35812 H 55.29825259151758 9.683448829289375 50.18195579945848 H 0.0 **** 0.06
35813 H 55.14927293537339 8.135710879094631 51.04871771453696 H 0.0 **** 0.06
35814 H 53.93041611266887 8.597724714914335 49.835432389954974 H 0.0 **** 0.06
35815 H 54.01013501861998 9.460273527427574 51.39008774830421 H 0.0 **** 0.06
35816 C 94.85054487852156 90.06210844165513 81.30780633045373 C 0.0 **** -0.24
35817 H 93.97425225351034 89.61438635153242 81.77696077050786 H 0.0 **** 0.06
35818 H 94.53706516349935 90.89181018401798 80.67358378941202 H 0.0 **** 0.06
35819 H 95.3590672469085 89.31315506880894 80.70064856152013 H 0.0 **** 0.06
35820 H 95.52822806732183 90.42796478034087 82.07829142451646 H 0.0 **** 0.06
35821 C 84.13202782283436 29.113466918161436 64.89816251027915 C 0.0 **** -0.24
35822 H 84.75391043026208 28.953297198753233 65.77893739260004 H 0.0 **** 0.06
35823 H 83.55056520879528 30.027671210306238 65.024647802723 H 0.0 **** 0.06
35824 H 83.45602783439992 28.267718015759215 64.7725061738659 H 0.0 **** 0.06
35825 H 84.76686296327797 29.205501633923234 64.01714398416787 H 0.0 **** 0.06
35826 C 63.96314252253637 39.01795499678562 20.727118089295004 C 0.0 **** -0.24
35827 H 64.19723579403629 37.953087873239724 20.724456049564054 H 0.0 **** 0.06
35828 H 63.51261778007178 39.28775926099911 21.682663931432046 H 0.0 **** 0.06
35829 H 63.265483720179446 39.23869763594868 19.92038113955087 H 0.0 **** 0.06
35830 H 64.87910722832909 39.590503733394286 20.582503804197103 H 0.0 **** 0.06
35831 C 80.64096051964532 93.72551117964545 31.654647268699307 C 0.0 **** -0.24
35832 H 80.71641734057414 92.6405127234452 31.59996432502291 H 0.0 **** 0.06
35833 H 80.650714751068 94.03824561746822 32.69987013436631 H 0.0 **** 0.06
35834 H 79.7117158333471 94.04915064801324 31.18653138446541 H 0.0 **** 0.06
35835 H 81.48639234396597 94.17576144142882 31.13285754565078 H 0.0 **** 0.06
35836 C 17.57882000395611 22.335205706848626 41.20866800891011 C 0.0 **** -0.24
35837 H 17.52298375099702 21.652323566716575 42.05687968056861 H 0.0 **** 0.06
35838 H 18.27500105342184 23.142231571623228 41.437532418658634 H 0.0 **** 0.06
35839 H 16.59090831393612 22.750175499613533 41.01170298995865 H 0.0 **** 0.06
35840 H 17.9267328436519 21.793204512462438 40.32929319188747 H 0.0 **** 0.06
35841 C 62.48294982635633 4.23337963646253 49.550448522152394 C 0.0 **** -0.24
35842 H 61.80052122497676 3.824755895917704 50.29540927887363 H 0.0 **** 0.06
35843 H 63.48329396084836 4.311056256272167 49.97728537605932 H 0.0 **** 0.06
35844 H 62.139176757733026 5.222213597729166 49.246495905043496 H 0.0 **** 0.06
35845 H 62.507795012779525 3.575987578942602 48.68174887595999 H 0.0 **** 0.06
35846 C 84.13082141412022 15.373121831441722 9.854081052975403 C 0.0 **** -0.24
35847 H 83.34477136984952 14.668131545846848 10.126343379236914 H 0.0 **** 0.06
35848 H 83.84512281249096 15.90220323993077 8.945448654115353 H 0.0 **** 0.06
35849 H 85.06135815215546 14.831398092557436 9.682886709230502 H 0.0 **** 0.06
35850 H 84.27132425357473 16.089400432793695 10.663559664355205 H 0.0 **** 0.06
35851 C 51.16334690869792 76.16581219466488 93.57208076879039 C 0.0 **** -0.24
35852 H 51.588254018549975 77.16909058829421 93.55046836228053 H 0.0 **** 0.06
35853 H 51.96815988208499 75.43171482337047 93.62538083704646 H 0.0 **** 0.06
35854 H 50.57723065879489 75.9993634507324 92.66791801008907 H 0.0 **** 0.06
35855 H 50.52020640473435 76.0629763225154 94.44695896177242 H 0.0 **** 0.06
35856 C 58.74192170770664 20.40485960766209 52.09290990622067 C 0.0 **** -0.24
35857 H 58.050039474675316 19.624825680490616 51.77450171633352 H 0.0 **** 0.06
35858 H 58.71062288693747 21.230806557600957 51.38126266468963 H 0.0 **** 0.06
35859 H 59.75255461954873 19.99985393205594 52.13475705766934 H 0.0 **** 0.06
35860 H 58.452902899094795 20.76540352816336 53.080455828037756 H 0.0 **** 0.06
35861 C 50.21446659036286 36.3924340265239 1.3752181112746058 C 0.0 **** -0.24
35862 H 50.8795744536061 37.112064400808634 0.8976384091473335 H 0.0 **** 0.06
35863 H 49.65430606343051 36.88690315213154 2.1689914963264414 H 0.0 **** 0.06
35864 H 50.8035470174587 35.57868245047737 1.7989377824983706 H 0.0 **** 0.06
35865 H 49.521409714986476 35.99191291875009 0.6354703765922523 H 0.0 **** 0.06
35866 C 29.861781779028036 98.22005392231065 69.51235615920584 C 0.0 **** -0.24
35867 H 30.099828616675723 97.22532308738293 69.89049241017707 H 0.0 **** 0.06
35868 H 30.7346624607369 98.86501657487337 69.61273142304636 H 0.0 **** 0.06
35869 H 29.033152738692536 98.6365070072929 70.08604640523944 H 0.0 **** 0.06
35870 H 29.578469000273344 98.15109794168383 68.46210730931739 H 0.0 **** 0.06
35871 C 64.59094252039245 98.19471967197039 80.98938167969115 C 0.0 **** -0.24
35872 H 63.8304890015263 98.32358067971788 81.75998924682463 H 0.0 **** 0.06
35873 H 64.46164831717454 98.95778046009697 80.22038164527888 H 0.0 **** 0.06
35874 H 64.48967484894928 97.20557357890073 80.54072629084894 H 0.0 **** 0.06
35875 H 65.58025122923385 98.291342613915 81.4351158275172 H 0.0 **** 0.06
35876 C 7.84246008920482 41.25909890920087 15.78812120137232 C 0.0 **** -0.24
35877 H 8.485591659219523 40.87038345998491 14.998694965632467 H 0.0 **** 0.06
35878 H 6.88569911441931 40.736462759441395 15.767733983574885 H 0.0 **** 0.06
35879 H 7.6788934174666394 42.32464464699029 15.630952903426248 H 0.0 **** 0.06
35880 H 8.321675581510789 41.10352825099625 16.755268574391465 H 0.0 **** 0.06
35881 C 38.366396459920395 89.81813490829438 79.27295348342857 C 0.0 **** -0.24
35882 H 37.62242622855334 89.099396383152 78.93069204251837 H 0.0 **** 0.06
35883 H 38.97643567470118 90.1391524874357 78.42826146540601 H 0.0 **** 0.06
35884 H 39.003427057710354 89.35160323555624 80.0248311026356 H 0.0 **** 0.06
35885 H 37.86409325798596 90.68152017343067 79.7072460161367 H 0.0 **** 0.06
35886 C 29.086925994184398 41.12471388666259 62.37952277781223 C 0.0 **** -0.24
35887 H 28.42425660370705 41.94469365743649 62.65694335773102 H 0.0 **** 0.06
35888 H 28.753282310207425 40.691615572827146 61.43603536714541 H 0.0 **** 0.06
35889 H 29.065449977486224 40.361350698507835 63.15835344448372 H 0.0 **** 0.06
35890 H 30.103058375850622 41.5010659552197 62.26724744922336 H 0.0 **** 0.06
35891 C 1.644925933381188 57.52852238561013 80.97784483302797 C 0.0 **** -0.24
35892 H 1.789475830516679 57.46945013895703 82.05607785611022 H 0.0 **** 0.06
35893 H 1.3315531897326593 56.55552221989899 80.59964131345453 H 0.0 **** 0.06
35894 H 2.581589113492953 57.818632257329796 80.5013250765918 H 0.0 **** 0.06
35895 H 0.8781577155438782 58.26965333874978 80.75393618482468 H 0.0 **** 0.06
35896 C 90.54601480352659 9.680158808366599 28.876603928592516 C 0.0 **** -0.24
35897 H 90.8433811489142 8.747001826592424 28.396766379582374 H 0.0 **** 0.06
35898 H 89.46322516453068 9.792330217164562 28.811091063462612 H 0.0 **** 0.06
35899 H 91.03022012584074 10.517760544247466 28.374210397310634 H 0.0 **** 0.06
35900 H 90.8463721097238 9.660679443602305 29.92409938833248 H 0.0 **** 0.06
35901 C 43.82204163948206 97.20072535570209 73.57075307181262 C 0.0 **** -0.24
35902 H 43.24902211705163 97.4984637452827 72.69271880241314 H 0.0 **** 0.06
35903 H 44.6283311814959 96.53244426665029 73.26845807201312 H 0.0 **** 0.06
35904 H 43.16712037776958 96.68692077967955 74.27470457764412 H 0.0 **** 0.06
35905 H 44.24315684170455 98.08741451925023 74.04533399462144 H 0.0 **** 0.06
35906 C 42.87640793294773 9.723801919224401 86.70286295340594 C 0.0 **** -0.24
35907 H 43.56639887870517 9.98507227072805 87.5053166989387 H 0.0 **** 0.06
35908 H 43.03887731400803 10.387879814565252 85.8533666323054 H 0.0 **** 0.06
35909 H 41.8504564937289 9.830452473709014 87.05593664870213 H 0.0 **** 0.06
35910 H 43.04971232364639 8.692651320764751 86.39633611909657 H 0.0 **** 0.06
35911 C 78.1403431890727 0.5894494938653594 102.82590939866795 C 0.0 **** -0.24
35912 H 77.37774531296586 0.25532637190663365 102.12160692232692 H 0.0 **** 0.06
35913 H 78.86886782093904 1.2098140120171479 102.30497237678925 H 0.0 **** 0.06
35914 H 78.64164557432252 -0.2779352473770871 103.25610861466498 H 0.0 **** 0.06
35915 H 77.6708933417633 1.1683683033352565 103.62060274362639 H 0.0 **** 0.06
35916 C 45.388116632050526 96.83870255069442 81.69941114485114 C 0.0 **** -0.24
35917 H 44.70231247520516 97.13115148511964 80.90533689867858 H 0.0 **** 0.06
35918 H 46.16512757067565 97.59590651728907 81.80611578078395 H 0.0 **** 0.06
35919 H 45.84483664688054 95.8810264307651 81.45078500125952 H 0.0 **** 0.06
35920 H 44.839877657464314 96.74572568775831 82.63738240151798 H 0.0 **** 0.06
35921 C 59.64671767684959 76.69784164163478 44.09579906302441 C 0.0 **** -0.24
35922 H 60.694371092202175 76.45715579483756 44.27661487065207 H 0.0 **** 0.06
35923 H 59.22946907886663 75.99003106445173 43.379997084675395 H 0.0 **** 0.06
35924 H 59.57095385802717 77.70883488501373 43.694157105885765 H 0.0 **** 0.06
35925 H 59.09276341270274 76.63746824760649 45.032286866980854 H 0.0 **** 0.06
35926 C 62.11583936917532 44.231493246663206 1.603109527115663 C 0.0 **** -0.24
35927 H 61.70787705412812 44.920897019683935 2.3415097175592336 H 0.0 **** 0.06
35928 H 61.73516613016858 44.491280898294406 0.6147821427763915 H 0.0 **** 0.06
35929 H 61.81575719322336 43.21324719898121 1.8520561392367085 H 0.0 **** 0.06
35930 H 63.2028842087941 44.30032490069965 1.6037004157730337 H 0.0 **** 0.06
35931 C 74.6262806277822 77.18554032004369 73.48765701350685 C 0.0 **** -0.24
35932 H 75.22933862801665 76.27760466459699 73.49646617044665 H 0.0 **** 0.06
35933 H 73.68116439475173 76.98977015895196 72.98158484682722 H 0.0 **** 0.06
35934 H 75.16489978366437 77.97379543682297 72.96026526920855 H 0.0 **** 0.06
35935 H 74.43198851052867 77.50295370276206 74.51228330477439 H 0.0 **** 0.06
35936 C 66.04639620633048 22.18403813070445 105.48710822298673 C 0.0 **** -0.24
35937 H 66.18409986147401 22.898516727220297 104.67539228992825 H 0.0 **** 0.06
35938 H 65.0762208699141 22.34853058048722 105.95554043850697 H 0.0 **** 0.06
35939 H 66.8355563924535 22.318858917977963 106.2265331648689 H 0.0 **** 0.06
35940 H 66.09083906263749 21.170020175499047 105.0890515036209 H 0.0 **** 0.06
35941 C 0.7366980296320857 106.2869263740633 88.63195857063613 C 0.0 **** -0.24
35942 H 1.336232259992964 106.70358632188531 87.82386339806163 H 0.0 **** 0.06
35943 H -0.007483181493724622 107.01881985373647 88.94655987798103 H 0.0 **** 0.06
35944 H 1.383228400869136 106.04089483555536 89.47409552573117 H 0.0 **** 0.06
35945 H 0.23411598815637813 105.38458105530994 88.2826221152281 H 0.0 **** 0.06
35946 C 104.5571304159793 105.5773111548313 34.611878083340784 C 0.0 **** -0.24
35947 H 104.40424535937441 104.68653029265886 34.00249205828318 H 0.0 **** 0.06
35948 H 105.6143194241256 105.84266430362561 34.60632702478784 H 0.0 **** 0.06
35949 H 104.23760459356579 105.37537279011934 35.63422628797501 H 0.0 **** 0.06
35950 H 103.97275159287267 106.40049550743475 34.20330308879816 H 0.0 **** 0.06
35951 C 67.30960142287174 88.36715275570484 22.194957577321702 C 0.0 **** -0.24
35952 H 66.87348715189307 87.47942333974815 21.737262790983493 H 0.0 **** 0.06
35953 H 66.5795886153768 89.17782649026476 22.181873059561894 H 0.0 **** 0.06
35954 H 68.1955770863275 88.66672862542904 21.63528613674157 H 0.0 **** 0.06
35955 H 67.58718966877842 88.1458267815257 23.225342102209652 H 0.0 **** 0.06
35956 C 34.281363523246284 54.28136089920895 61.816796416248536 C 0.0 **** -0.24
35957 H 33.71170639285424 55.10109960684616 62.25312754659841 H 0.0 **** 0.06
35958 H 35.32052584427612 54.34828256844145 62.140831792088136 H 0.0 **** 0.06
35959 H 34.23528900661961 54.344763709790016 60.72913011699785 H 0.0 **** 0.06
35960 H 33.85879327297312 53.33138125135389 62.1429769308712 H 0.0 **** 0.06
35961 C 26.757421295361866 35.350701519771725 95.42336157493517 C 0.0 **** -0.24
35962 H 27.684080873356777 35.07542276440382 95.92734506455406 H 0.0 **** 0.06
35963 H 26.7880797414538 35.00070687854462 94.39122808200744 H 0.0 **** 0.06
35964 H 26.644380758799855 36.433660082943895 95.4382675729404 H 0.0 **** 0.06
35965 H 25.91367432417644 34.88951731308754 95.93782045283089 H 0.0 **** 0.06
35966 C 13.501579148023524 43.56429027919225 20.203915169006066 C 0.0 **** -0.24
35967 H 12.550247437338015 43.94708333904143 20.574355701943034 H 0.0 **** 0.06
35968 H 13.50321616752177 43.59226960211558 19.114255503412238 H 0.0 **** 0.06
35969 H 13.635593506896242 42.537388016769114 20.541939635539947 H 0.0 **** 0.06
35970 H 14.314912120483086 44.18244460028731 20.584483736871306 H 0.0 **** 0.06
35971 C 60.85917978290274 10.436943558948087 64.10525099194498 C 0.0 **** -0.24
35972 H 61.48071065307599 9.555264279831876 64.2602371655183 H 0.0 **** 0.06
35973 H 61.41105797736523 11.173157209436308 63.520687363730474 H 0.0 **** 0.06
35974 H 60.5901047315634 10.866418068718957 65.07032403305925 H 0.0 **** 0.06
35975 H 59.9535788367173 10.15234957704673 63.56998481831508 H 0.0 **** 0.06
35976 C 21.307977743702622 90.01820749502387 69.72670052219327 C 0.0 **** -0.24
35977 H 20.434520668457026 90.65713985637751 69.5990335607934 H 0.0 **** 0.06
35978 H 21.200740258859412 89.12713814035168 69.10734337113708 H 0.0 **** 0.06
35979 H 21.393791939564892 89.72531706612162 70.77370619842738 H 0.0 **** 0.06
35980 H 22.203214628332034 90.5638207721984 69.42744677241865 H 0.0 **** 0.06
35981 C 49.75212783027209 3.549590877469079 32.72021163756688 C 0.0 **** -0.24
35982 H 50.554495591075295 4.144542736488355 32.28546124047821 H 0.0 **** 0.06
35983 H 49.64369462949483 2.6206790182878086 32.159720123295585 H 0.0 **** 0.06
35984 H 48.81927474813895 4.111318826342584 32.67685815738267 H 0.0 **** 0.06
35985 H 49.99104635237933 3.3218229287574266 33.75880702911135 H 0.0 **** 0.06
35986 C 24.611330584330176 68.0661795590567 80.33721526864959 C 0.0 **** -0.24
35987 H 24.674900146473192 67.3827889298397 79.49148967269188 H 0.0 **** 0.06
35988 H 23.571210862558416 68.35304547609798 80.49475782420055 H 0.0 **** 0.06
35989 H 25.20653782582926 68.9556612442812 80.13174420361791 H 0.0 **** 0.06
35990 H 24.991544328774552 67.57309676803817 81.2317115312722 H 0.0 **** 0.06
35991 C 66.76674609810829 56.05991019196949 4.976334245254966 C 0.0 **** -0.24
35992 H 66.50901010218928 55.45054846936358 4.111190287185751 H 0.0 **** 0.06
35993 H 66.51791142276625 55.519143543736874 5.889454415497635 H 0.0 **** 0.06
35994 H 66.20637187345511 56.99408923784952 4.9434263193759325 H 0.0 **** 0.06
35995 H 67.83526991253808 56.27646649599387 4.961638424905349 H 0.0 **** 0.06
35996 C 64.49969946954928 23.69395926424488 22.913644881522544 C 0.0 **** -0.24
35997 H 65.49643451743768 23.55934641919302 22.493356480505867 H 0.0 **** 0.06
35998 H 64.13916909840808 24.696042541646165 22.67884343701192 H 0.0 **** 0.06
35999 H 64.54169993558597 23.565596417371296 23.994633126885873 H 0.0 **** 0.06
36000 H 63.82358750778047 22.953897135902025 22.48582090240008 H 0.0 **** 0.06
36001 C 15.651019556015399 60.53219623889174 11.119848257056868 C 0.0 **** -0.24
36002 H 16.300289096274696 61.39405840459557 10.958943075437078 H 0.0 **** 0.06
36003 H 16.1736758564453 59.62350190808826 10.821590481711887 H 0.0 **** 0.06
36004 H 14.745979985569704 60.64408774664065 10.524321356532498 H 0.0 **** 0.06
36005 H 15.386874306531013 60.47064854723902 12.175613325913979 H 0.0 **** 0.06
36006 C 98.23502123098375 5.022829495635904 56.0726258601799 C 0.0 **** -0.24
36007 H 98.9657515867538 5.712162334918133 56.4948924363232 H 0.0 **** 0.06
36008 H 98.51205339143307 4.784465699921796 55.04580524193605 H 0.0 **** 0.06
36009 H 97.24879338473842 5.4879272810463675 56.08426365831846 H 0.0 **** 0.06
36010 H 98.21284976909897 4.108902927030215 56.66542373253344 H 0.0 **** 0.06
36011 C 30.00792494183085 3.1183087281947337 100.40266693270956 C 0.0 **** -0.24
36012 H 30.38130967748924 4.101893639329717 100.11535990388109 H 0.0 **** 0.06
36013 H 29.162364326676936 3.2356595553791863 101.0797796975831 H 0.0 **** 0.06
36014 H 30.800019590138618 2.5612551800852543 100.90173512401297 H 0.0 **** 0.06
36015 H 29.687674655274236 2.577560273484039 99.51177547159985 H 0.0 **** 0.06
36016 C 46.54580010644811 87.4820015602157 1.7141792414213484 C 0.0 **** -0.24
36017 H 47.10598442215632 86.85026933715574 2.4029111185010805 H 0.0 **** 0.06
36018 H 46.210515840497656 88.37855547543606 2.236414135482562 H 0.0 **** 0.06
36019 H 45.680955789416785 86.93385555992027 1.3405149880238838 H 0.0 **** 0.06
36020 H 47.18608067276508 87.76534508099797 0.8788481997792843 H 0.0 **** 0.06
36021 C 6.195081688433376 65.00350824326222 91.17948717806138 C 0.0 **** -0.24
36022 H 7.282730262172038 64.99342483730828 91.11362686564678 H 0.0 **** 0.06
36023 H 5.880614298080403 65.76753336028457 91.89099727890891 H 0.0 **** 0.06
36024 H 5.842519622662351 64.02746930435995 91.51295635077997 H 0.0 **** 0.06
36025 H 5.7744126708421675 65.22489663562408 90.19849865908589 H 0.0 **** 0.06
36026 C 18.764897821224196 71.30811104434488 42.591027924546324 C 0.0 **** -0.24
36027 H 19.66043935259765 70.9696965053911 42.070424767539755 H 0.0 **** 0.06
36028 H 17.979005947383257 70.56005737308388 42.48558417068408 H 0.0 **** 0.06
36029 H 18.4292616547759 72.25167699708186 42.16120662910064 H 0.0 **** 0.06
36030 H 18.99148142480675 71.45031102151958 43.6479686850229 H 0.0 **** 0.06
36031 C 105.06129141461273 90.97860065784562 57.73876711374055 C 0.0 **** -0.24
36032 H 105.22415287936255 91.87013411255413 57.13257903836208 H 0.0 **** 0.06
36033 H 104.13461680177866 90.49485572250705 57.42988411221671 H 0.0 **** 0.06
36034 H 104.99071622873711 91.26196052089722 58.78913755273089 H 0.0 **** 0.06
36035 H 105.89468346284966 90.29022126823509 57.602884221016495 H 0.0 **** 0.06
36036 C 85.56059155761776 101.68783325251921 39.60255380964935 C 0.0 **** -0.24
36037 H 85.85962675228785 101.66632945564899 40.650361631603985 H 0.0 **** 0.06
36038 H 84.51492561455447 101.39116934619369 39.51596277471799 H 0.0 **** 0.06
36039 H 86.18354687905614 100.9975859261738 39.03288281127453 H 0.0 **** 0.06
36040 H 85.68542873718579 102.69810725547617 39.210566683324515 H 0.0 **** 0.06
36041 C 21.797451293408074 48.16166090506829 65.60071272805054 C 0.0 **** -0.24
36042 H 21.098060018159742 47.76230958655245 64.86579293312107 H 0.0 **** 0.06
36043 H 21.619298112767638 47.68741676055845 66.56537308385447 H 0.0 **** 0.06
36044 H 21.65238190378443 49.2380429568735 65.69212527249437 H 0.0 **** 0.06
36045 H 22.81809230918026 47.958274876472274 65.27762339363785 H 0.0 **** 0.06
36046 C 16.488858727737203 13.945319726481017 19.895034381355686 C 0.0 **** -0.24
36047 H 16.76767899760009 12.93525144880806 19.595564819501803 H 0.0 **** 0.06
36048 H 17.385387631888815 14.55889927837184 19.984587562281845 H 0.0 **** 0.06
36049 H 15.974449752446134 13.909959420330807 20.85566583448253 H 0.0 **** 0.06
36050 H 15.82666931576081 14.375991230776563 19.144089020083698 H 0.0 **** 0.06
36051 C 94.01920937304969 90.9328417059816 21.304093316497728 C 0.0 **** -0.24
36052 H 93.49960198997803 91.1489966794187 22.237198814213826 H 0.0 **** 0.06
36053 H 93.46817227665733 91.37117088734102 20.47131158665138 H 0.0 **** 0.06
36054 H 94.08629389040962 89.85364254478853 21.167036618303797 H 0.0 **** 0.06
36055 H 95.0223669260969 91.35769647711741 21.339477682820757 H 0.0 **** 0.06
36056 C 92.42146837654764 100.3051305356606 23.852060428548498 C 0.0 **** -0.24
36057 H 92.21525305850412 99.5628170326897 23.081143051413648 H 0.0 **** 0.06
36058 H 92.25326039968957 99.86402658773297 24.835223769093943 H 0.0 **** 0.06
36059 H 91.75826069021048 101.16038002024247 23.719347850775648 H 0.0 **** 0.06
36060 H 93.45721088130063 100.63274244897192 23.772880095048293 H 0.0 **** 0.06
36061 C 4.169216548615282 6.775554447077255 106.52879881234912 C 0.0 **** -0.24
36062 H 4.193717748381971 7.468217491617963 107.36871380864909 H 0.0 **** 0.06
36063 H 4.0179312699795275 5.761304622945275 106.89828597905942 H 0.0 **** 0.06
36064 H 5.113777192388142 6.828135875261964 105.98711984515965 H 0.0 **** 0.06
36065 H 3.3521288190986525 7.045017496067743 105.85899805811222 H 0.0 **** 0.06
36066 C 44.12626608277998 14.403590354601246 9.88735438513362 C 0.0 **** -0.24
36067 H 44.58049957925556 14.285845027302997 10.871076229231377 H 0.0 **** 0.06
36068 H 43.3059249099789 13.693526667733678 9.779009268626936 H 0.0 **** 0.06
36069 H 44.87386453001267 14.216066324342272 9.116802638674613 H 0.0 **** 0.06
36070 H 43.74423558627643 15.41999637247082 9.78327607418501 H 0.0 **** 0.06
36071 C 29.035512244916987 95.52429298339901 66.00111200955905 C 0.0 **** -0.24
36072 H 29.548248415355687 94.79718032210195 66.63048430484415 H 0.0 **** 0.06
36073 H 29.765032759328903 96.20503101530053 65.56362920157869 H 0.0 **** 0.06
36074 H 28.325549405796828 96.09056901319856 66.60552992911315 H 0.0 **** 0.06
36075 H 28.501746987281713 95.00340736325593 65.2061707976907 H 0.0 **** 0.06
36076 C 101.74828294417 60.662601957336335 46.369963248367384 C 0.0 **** -0.24
36077 H 101.8796355409894 61.39871649134449 47.16270379244227 H 0.0 **** 0.06
36078 H 102.02900425348162 59.676332752819064 46.7402122640579 H 0.0 **** 0.06
36079 H 102.37939632110749 60.92665821593852 45.52163495928946 H 0.0 **** 0.06
36080 H 100.7040222196398 60.65003551089029 46.056739110398354 H 0.0 **** 0.06
36081 C 16.268928810242585 80.93485587177994 83.42745459624236 C 0.0 **** -0.24
36082 H 15.438284007826326 81.25894951561833 84.05400962606143 H 0.0 **** 0.06
36083 H 16.62487190531874 81.77686417483974 82.8327048188614 H 0.0 **** 0.06
36084 H 15.933887743281616 80.1374903451501 82.76342790410521 H 0.0 **** 0.06
36085 H 17.078054613893244 80.56732853764802 84.05820714448095 H 0.0 **** 0.06
36086 C 61.01610701060491 34.77417656422519 31.08616312441695 C 0.0 **** -0.24
36087 H 61.25537884235173 34.128544247990675 30.240785315319783 H 0.0 **** 0.06
36088 H 60.16813299543727 35.409112224699626 30.827925791375193 H 0.0 **** 0.06
36089 H 61.87888330814283 35.39803811708645 31.322276629587805 H 0.0 **** 0.06
36090 H 60.76294616736284 34.162258865785155 31.950564602617277 H 0.0 **** 0.06
36091 C 67.68978848199195 34.705954955406526 45.33714104625159 C 0.0 **** -0.24
36092 H 68.40886472114923 35.28404065549728 44.757753490691016 H 0.0 **** 0.06
36093 H 68.21206322187965 33.922981783311116 45.887394476844975 H 0.0 **** 0.06
36094 H 66.96134249935888 34.253148248454636 44.66431324074128 H 0.0 **** 0.06
36095 H 67.17591267686178 35.36341615709813 46.03916040559483 H 0.0 **** 0.06
36096 C 26.708532158608783 89.03333298970213 92.08574101642972 C 0.0 **** -0.24
36097 H 25.634568628712426 89.09597052208821 91.90918903773706 H 0.0 **** 0.06
36098 H 27.208178052489266 88.70664462040051 91.17374792579272 H 0.0 **** 0.06
36099 H 26.903705822880912 88.31761626822768 92.88428251094638 H 0.0 **** 0.06
36100 H 27.085567289521947 90.01392331431978 92.37668060533156 H 0.0 **** 0.06
36101 C 27.581603586532452 1.0284307067228724 80.75169139132788 C 0.0 **** -0.24
36102 H 27.7322335375484 0.051674120120623 81.21132264690806 H 0.0 **** 0.06
36103 H 27.24519430467609 1.736808980918994 81.50858353138449 H 0.0 **** 0.06
36104 H 26.827803833490528 0.9484189968384271 79.96787967533959 H 0.0 **** 0.06
36105 H 28.51998221825407 1.3747660245055044 80.31956055613517 H 0.0 **** 0.06
36106 C 96.83324487529035 53.86157064346821 79.49547166121103 C 0.0 **** -0.24
36107 H 95.94768156440864 53.31377502932543 79.81761183819569 H 0.0 **** 0.06
36108 H 96.55972300694987 54.89314516520892 79.27316441050797 H 0.0 **** 0.06
36109 H 97.24527699931889 53.39402274478351 78.60134404940833 H 0.0 **** 0.06
36110 H 97.57898333884907 53.847081560358106 80.29025396704483 H 0.0 **** 0.06
36111 C 24.972975865913554 53.48871957708593 1.2018323922999627 C 0.0 **** -0.24
36112 H 23.97530856151575 53.552113104483965 1.636410259830484 H 0.0 **** 0.06
36113 H 24.89162460139389 53.2848524894128 0.13411150440930442 H 0.0 **** 0.06
36114 H 25.52829961173637 52.68478388340725 1.68513007790051 H 0.0 **** 0.06
36115 H 25.495604306558835 54.43389464160822 1.3534878632106597 H 0.0 **** 0.06
36116 C 64.72310989581028 68.99096617461117 88.05216900148147 C 0.0 **** -0.24
36117 H 65.31602250939206 68.73238914134691 88.92934358263946 H 0.0 **** 0.06
36118 H 65.02282665216265 69.9739865065356 87.6870585209675 H 0.0 **** 0.06
36119 H 63.66654607672399 69.0090108372487 88.32017461893543 H 0.0 **** 0.06
36120 H 64.88733464553033 68.24767345582245 87.27158146390886 H 0.0 **** 0.06
36121 C 85.70527147415592 65.93671150994015 67.03549510866483 C 0.0 **** -0.24
36122 H 84.97097517028809 65.98609424341504 67.83935951164304 H 0.0 **** 0.06
36123 H 86.55237206887294 65.32894446620168 67.35404734235257 H 0.0 **** 0.06
36124 H 86.04977239879963 66.943305885146 66.7954958400631 H 0.0 **** 0.06
36125 H 85.24733927055732 65.49002780375884 66.15360428878712 H 0.0 **** 0.06
36126 C 52.47914186401235 72.3394142349275 48.16872209598824 C 0.0 **** -0.24
36127 H 52.103941061457334 71.35598291548848 48.45005971726 H 0.0 **** 0.06
36128 H 53.56043887494039 72.29362829943175 48.04123443297456 H 0.0 **** 0.06
36129 H 52.23498876392691 73.05843882526041 48.95111179356377 H 0.0 **** 0.06
36130 H 52.015154744081315 72.65045757647445 47.23216844114588 H 0.0 **** 0.06
36131 C 91.30787595652515 40.59463660108841 97.87794889641408 C 0.0 **** -0.24
36132 H 90.92484277659906 40.11303288265293 96.97928652184726 H 0.0 **** 0.06
36133 H 91.63573399684459 39.83398807363318 98.58728639195108 H 0.0 **** 0.06
36134 H 90.52120241488818 41.198620813987816 98.33006891917923 H 0.0 **** 0.06
36135 H 92.15082883518767 41.23461315544341 97.61608215617385 H 0.0 **** 0.06
36136 C 101.8501735938631 11.211469390128093 73.88383603277128 C 0.0 **** -0.24
36137 H 100.91114992419888 11.191792920001019 74.43740455976922 H 0.0 **** 0.06
36138 H 102.64835336373491 10.809670390303774 74.50889233250368 H 0.0 **** 0.06
36139 H 102.08645441434783 12.239309024706785 73.60786903782056 H 0.0 **** 0.06
36140 H 101.7535571902014 10.605959422711836 72.982875079682 H 0.0 **** 0.06
36141 C 16.411790438080573 31.988562053440546 13.22551463773948 C 0.0 **** -0.24
36142 H 15.418300505546341 32.20823253032995 12.83486859253074 H 0.0 **** 0.06
36143 H 16.540099772862135 32.48267181438757 14.189068481255092 H 0.0 **** 0.06
36144 H 17.16462832591023 32.35330616225531 12.527350246544316 H 0.0 **** 0.06
36145 H 16.52344473659923 30.912150670704932 13.351019632461686 H 0.0 **** 0.06
36146 C 78.21130701427637 89.94405381673643 33.211270510330166 C 0.0 **** -0.24
36147 H 78.70144840522454 90.87469054293416 32.924955269589304 H 0.0 **** 0.06
36148 H 78.04504825295373 89.93905252568963 34.28894799572777 H 0.0 **** 0.06
36149 H 78.84480518461675 89.10057036680253 32.93688493543016 H 0.0 **** 0.06
36150 H 77.25491874928431 89.86326879899215 32.69536456857182 H 0.0 **** 0.06
36151 C 4.628104998141842 22.968179529926562 75.5028548051111 C 0.0 **** -0.24
36152 H 3.7471530183853465 23.548354278160147 75.22834874883684 H 0.0 **** 0.06
36153 H 5.5164931862714806 23.433407012080295 75.07367698018204 H 0.0 **** 0.06
36154 H 4.528605161228056 21.95237696276716 75.11900108277614 H 0.0 **** 0.06
36155 H 4.721267429848183 22.939221810788666 76.58829936883211 H 0.0 **** 0.06
36156 C 102.75784505496367 62.79864601669534 42.74341915548749 C 0.0 **** -0.24
36157 H 103.18577648957793 62.87595648636305 41.7441842174367 H 0.0 **** 0.06
36158 H 103.3263050411459 63.42512876697349 43.4308268347277 H 0.0 **** 0.06
36159 H 102.80070981569494 61.76107520110335 43.07690257520028 H 0.0 **** 0.06
36160 H 101.72009843455456 63.13085059069856 42.721265944909675 H 0.0 **** 0.06
36161 C 41.826772976079155 40.715648397819734 79.74647289467671 C 0.0 **** -0.24
36162 H 41.85448518045402 41.541104751576256 80.45795765259359 H 0.0 **** 0.06
36163 H 42.314237100224375 39.84326958765172 80.18254362256627 H 0.0 **** 0.06
36164 H 42.34795258206904 41.00508253584587 78.83370489254011 H 0.0 **** 0.06
36165 H 40.79087597291914 40.47321199114032 79.51080010781172 H 0.0 **** 0.06
36166 C 66.87906866078029 62.601046942712514 98.65032400520928 C 0.0 **** -0.24
36167 H 66.67974972590015 63.66321920396763 98.50670722998751 H 0.0 **** 0.06
36168 H 66.78425374199533 62.353780194881665 99.70762906538809 H 0.0 **** 0.06
36169 H 67.88982456233194 62.37367948962765 98.31190230891511 H 0.0 **** 0.06
36170 H 66.16293993433334 62.01639623806631 98.07320799403264 H 0.0 **** 0.06
36171 C 55.275111960834806 69.71308753011984 55.25201776852029 C 0.0 **** -0.24
36172 H 55.9101393007751 70.27143550773056 54.56525474237974 H 0.0 **** 0.06
36173 H 55.38946432935513 68.6445835654197 55.0641917574235 H 0.0 **** 0.06
36174 H 54.23451218026624 69.99911092701687 55.09952051727423 H 0.0 **** 0.06
36175 H 55.56685912403254 69.93483359644036 56.27893987697663 H 0.0 **** 0.06
36176 C 102.35948876800686 22.1484682460258 44.914824140492435 C 0.0 **** -0.24
36177 H 103.38067606570809 22.530168770472642 44.90973098016677 H 0.0 **** 0.06
36178 H 102.00437555508557 22.045182356779634 43.88989911940053 H 0.0 **** 0.06
36179 H 101.71586090679384 22.8422112021199 45.45587367810819 H 0.0 **** 0.06
36180 H 102.33921401990361 21.175165727823497 45.40661669671519 H 0.0 **** 0.06
36181 C 43.13618602237 40.273263513351026 51.9246978576154 C 0.0 **** -0.24
36182 H 43.71927130531316 41.17083090579172 51.718249214385224 H 0.0 **** 0.06
36183 H 43.58040407948329 39.737406705220366 52.76331129043669 H 0.0 **** 0.06
36184 H 43.133582576287495 39.63191546054749 51.04351536156676 H 0.0 **** 0.06
36185 H 42.112498729025674 40.55416922752687 52.172546642755464 H 0.0 **** 0.06
36186 C 104.36769601480903 83.08966500610995 64.59713935738051 C 0.0 **** -0.24
36187 H 103.43753709794699 83.47478452013132 64.17840783130231 H 0.0 **** 0.06
36188 H 104.93344150925515 83.90952351732915 65.04122473915734 H 0.0 **** 0.06
36189 H 104.95805396826638 82.62711241399768 63.80678927745464 H 0.0 **** 0.06
36190 H 104.14069274666691 82.34814173231422 65.36316772618812 H 0.0 **** 0.06
36191 C 70.55411358774705 55.143384644699225 65.6674361614275 C 0.0 **** -0.24
36192 H 70.06158525983147 56.009655122750424 66.1103707647838 H 0.0 **** 0.06
36193 H 70.074077574167 54.89774764278146 64.7197533918353 H 0.0 **** 0.06
36194 H 70.47610443759612 54.29436908104847 66.34620035527774 H 0.0 **** 0.06
36195 H 71.60513588715031 55.37384705033065 65.49273378231263 H 0.0 **** 0.06
36196 C 77.08032403411427 18.068018835288456 46.266794528501805 C 0.0 **** -0.24
36197 H 76.82672285607426 17.11767211266607 45.79827963565589 H 0.0 **** 0.06
36198 H 76.17547195232314 18.53052802285322 46.66070651945722 H 0.0 **** 0.06
36199 H 77.5350317592843 18.727700115936955 45.528346046614104 H 0.0 **** 0.06
36200 H 77.78395789975315 17.894246153701886 47.08135157234881 H 0.0 **** 0.06
36201 C 6.159341875177361 24.07278789731646 14.970757608864076 C 0.0 **** -0.24
36202 H 6.588312216749301 23.141674893613526 15.341082775192135 H 0.0 **** 0.06
36203 H 6.911258892334857 24.61773225153877 14.401018980973475 H 0.0 **** 0.06
36204 H 5.830256498250037 24.68009666347922 15.813629817017869 H 0.0 **** 0.06
36205 H 5.306941850928908 23.849169040423817 14.329169330845104 H 0.0 **** 0.06
36206 C 97.61856863818866 46.56343573274944 24.685269682111198 C 0.0 **** -0.24
36207 H 98.25268553431475 47.05680153822567 23.947848020737922 H 0.0 **** 0.06
36208 H 97.91900920556247 46.8721791841549 25.686490761920084 H 0.0 **** 0.06
36209 H 97.72579910082494 45.482345957292694 24.589445395282382 H 0.0 **** 0.06
36210 H 96.57873270849349 46.84217882816449 24.51411115847543 H 0.0 **** 0.06
36211 C 48.32582709209429 77.41757278689263 3.5739252137911137 C 0.0 **** -0.24
36212 H 48.55236885626708 78.20222816223819 4.295922088220863 H 0.0 **** 0.06
36213 H 49.06016887488621 76.61670444879184 3.665017459186288 H 0.0 **** 0.06
36214 H 48.36184598805784 77.83082871431307 2.5654437160070813 H 0.0 **** 0.06
36215 H 47.32940142890477 77.02111600568529 3.7686625222250427 H 0.0 **** 0.06
36216 C 1.8073039243174804 52.62398891360715 41.6196996775186 C 0.0 **** -0.24
36217 H 2.7627255016684273 52.52760530098618 42.13394032659278 H 0.0 **** 0.06
36218 H 1.013028535009994 52.22628958716132 42.25246947795516 H 0.0 **** 0.06
36219 H 1.8403671228272884 52.065189910954814 40.68422213977422 H 0.0 **** 0.06
36220 H 1.6117841018619288 53.67574925013477 41.40800897575167 H 0.0 **** 0.06
36221 C 29.434311909740813 31.02533248180299 24.19207796656545 C 0.0 **** -0.24
36222 H 30.32883051152443 30.514776652311696 23.83556721582532 H 0.0 **** 0.06
36223 H 29.68721614310106 31.6364466092233 25.059209868993946 H 0.0 **** 0.06
36224 H 28.683465549024135 30.28800234806829 24.474252868405685 H 0.0 **** 0.06
36225 H 29.040406110590233 31.662199957426367 23.400645276901002 H 0.0 **** 0.06
36226 C 4.247241423816632 104.61912859534017 67.24812991108865 C 0.0 **** -0.24
36227 H 3.9245382720946793 104.66967460879881 68.2881700527372 H 0.0 **** 0.06
36228 H 4.332978103327804 105.62932960172832 66.84573839428666 H 0.0 **** 0.06
36229 H 3.5152295538817384 104.0576618863794 66.6680226437453 H 0.0 **** 0.06
36230 H 5.215219775622188 104.12206330318047 67.19234756631852 H 0.0 **** 0.06
36231 C 91.87985253204704 97.44160051551356 30.851092456051788 C 0.0 **** -0.24
36232 H 92.78336248658479 97.94341826241754 31.19752198867718 H 0.0 **** 0.06
36233 H 91.3506696100697 97.0182222897657 31.704673155366322 H 0.0 **** 0.06
36234 H 92.14953556571828 96.64492259406668 30.15816242070582 H 0.0 **** 0.06
36235 H 91.23712190129953 98.16163714716902 30.344372313677013 H 0.0 **** 0.06
36236 C 85.77829682290765 94.09651094152098 51.66785066295073 C 0.0 **** -0.24
36237 H 85.53445766247222 93.21979682667826 51.067941898132936 H 0.0 **** 0.06
36238 H 85.0657130498416 94.18384404841221 52.48820181629443 H 0.0 **** 0.06
36239 H 85.72593907376184 94.98943459729401 51.04479149606833 H 0.0 **** 0.06
36240 H 86.78564553149829 93.9920733013776 52.07008198419043 H 0.0 **** 0.06
36241 C 44.50655407879907 83.52121134802915 1.6619846682196169 C 0.0 **** -0.24
36242 H 44.34631791584299 84.58409264367756 1.4807129451626082 H 0.0 **** 0.06
36243 H 44.74969691890246 83.0256738374263 0.7211946180157014 H 0.0 **** 0.06
36244 H 43.59962574882635 83.08438669556473 2.0797560455876862 H 0.0 **** 0.06
36245 H 45.32979210599551 83.39252189329262 2.3648473084799377 H 0.0 **** 0.06
36246 C 78.40081377592178 100.29059683527328 6.2566796523047685 C 0.0 **** -0.24
36247 H 78.05726474569404 100.18919626687295 7.286159956850597 H 0.0 **** 0.06
36248 H 78.0206173319916 99.45908524203276 5.662736161322826 H 0.0 **** 0.06
36249 H 79.49024979860145 100.28463639107196 6.2351552680452755 H 0.0 **** 0.06
36250 H 78.03472975871868 101.23038735619309 5.84261564437432 H 0.0 **** 0.06
36251 C 72.92377813814151 55.9671141910256 100.30831596167647 C 0.0 **** -0.24
36252 H 71.88418240950685 55.7156568926401 100.52135284567603 H 0.0 **** 0.06
36253 H 73.17388866252718 55.64749250245893 99.29672790054207 H 0.0 **** 0.06
36254 H 73.57273695499576 55.45872440592527 101.02130192296013 H 0.0 **** 0.06
36255 H 73.06166960918787 57.04412341440481 100.3937893364474 H 0.0 **** 0.06
36256 C 62.098619279468764 27.83213778095204 94.30056359639525 C 0.0 **** -0.24
36257 H 62.20588966407455 27.837708877719468 93.21586698681338 H 0.0 **** 0.06
36258 H 62.46066033838618 28.777017080942684 94.70625079548225 H 0.0 **** 0.06
36259 H 62.68139115964617 27.010652801007282 94.71858168355601 H 0.0 **** 0.06
36260 H 61.04858257074086 27.70189913227446 94.56199141034975 H 0.0 **** 0.06
36261 C 57.45053587489622 40.59312128846701 78.35653590187033 C 0.0 **** -0.24
36262 H 57.57185777890456 39.61550635478216 78.82107293889138 H 0.0 **** 0.06
36263 H 56.670595589668466 41.149290496338665 78.87673747561487 H 0.0 **** 0.06
36264 H 57.17068852821819 40.466100185297925 77.31079080581915 H 0.0 **** 0.06
36265 H 58.39070506425847 41.14293159008756 78.41640503206784 H 0.0 **** 0.06
36266 C 42.803908599596696 53.17307352739351 8.215420840152591 C 0.0 **** -0.24
36267 H 43.45769900622889 54.033609701595196 8.069460715265949 H 0.0 **** 0.06
36268 H 43.39234207340979 52.25708575304691 8.169900325996936 H 0.0 **** 0.06
36269 H 42.04549935557475 53.157257551173075 7.432962559414982 H 0.0 **** 0.06
36270 H 42.31938178778398 53.246394788335806 9.189884560954438 H 0.0 **** 0.06
36271 C 61.50415313696635 78.96208062186294 89.51494112237461 C 0.0 **** -0.24
36272 H 61.61952949547464 78.39816883946642 88.58998899014168 H 0.0 **** 0.06
36273 H 61.97514062666994 79.93921835773345 89.40587987236513 H 0.0 **** 0.06
36274 H 61.97901900297063 78.41936480773059 90.33254596622733 H 0.0 **** 0.06
36275 H 60.44429954615214 79.09124902856426 89.73140483169817 H 0.0 **** 0.06
36276 C 9.797805433346825 21.301446633563074 52.43745842545525 C 0.0 **** -0.24
36277 H 9.223101934268954 21.70390197540442 51.601783603198754 H 0.0 **** 0.06
36278 H 10.296206805986028 20.383669636859807 52.12599390720385 H 0.0 **** 0.06
36279 H 9.125736165509544 21.08724860653288 53.26865444774563 H 0.0 **** 0.06
36280 H 10.543645779696282 22.03221197850499 52.750943540134955 H 0.0 **** 0.06
36281 C 21.21002927936246 35.94745004753685 71.91080106695026 C 0.0 **** -0.24
36282 H 21.998125635870736 36.09512182770814 72.64983890797427 H 0.0 **** 0.06
36283 H 21.263793835115848 34.92996057608704 71.52311140675178 H 0.0 **** 0.06
36284 H 21.340179906754287 36.65658079903409 71.0936235618178 H 0.0 **** 0.06
36285 H 20.2389224959191 36.10798256639154 72.38011724786497 H 0.0 **** 0.06
36286 C 13.758223255652396 88.91166240024329 81.3834890677627 C 0.0 **** -0.24
36287 H 14.204644576618549 88.74332342520748 82.36390058072448 H 0.0 **** 0.06
36288 H 12.95146434869973 89.63940117039154 81.47246697825048 H 0.0 **** 0.06
36289 H 13.360772063493059 87.97220694201994 80.99974867995235 H 0.0 **** 0.06
36290 H 14.516739986088183 89.29164610067274 80.69970150762134 H 0.0 **** 0.06
36291 C 85.57502888988343 62.45614632767115 25.055410227203083 C 0.0 **** -0.24
36292 H 84.62777093394988 61.97150351334406 25.29145980925813 H 0.0 **** 0.06
36293 H 86.3631501105206 61.70599422209594 24.999379729185478 H 0.0 **** 0.06
36294 H 85.81560503912645 63.180525995728345 25.834673982856657 H 0.0 **** 0.06
36295 H 85.4912010958715 62.96936076607122 24.09680623946008 H 0.0 **** 0.06
36296 C 102.6329953727415 103.73168739279289 86.99229727592399 C 0.0 **** -0.24
36297 H 103.15064416264987 103.2814920412935 86.14488674232652 H 0.0 **** 0.06
36298 H 102.55574116171694 104.80893444147577 86.83939741073954 H 0.0 **** 0.06
36299 H 103.19068875176815 103.53267046845102 87.90736506597227 H 0.0 **** 0.06
36300 H 101.63398672042239 103.30352577366946 87.07527349808089 H 0.0 **** 0.06
36301 C 80.73348288342007 106.36819750463934 78.60679046055915 C 0.0 **** -0.24
36302 H 81.30560187654072 106.05190311192968 77.73509476750718 H 0.0 **** 0.06
36303 H 80.6340819704019 107.45416032962683 78.60199881108703 H 0.0 **** 0.06
36304 H 81.24945470362721 106.05471833455194 79.51492076416602 H 0.0 **** 0.06
36305 H 79.74364642210273 105.91199464502782 78.5770672502951 H 0.0 **** 0.06
36306 C 105.88837409023455 5.22601881571768 32.82524241137247 C 0.0 **** -0.24
36307 H 106.55744562342926 4.42019848227622 33.128230221829185 H 0.0 **** 0.06
36308 H 106.35207213020054 5.80024680132837 32.022692668683696 H 0.0 **** 0.06
36309 H 105.69794472921622 5.879804191811417 33.67646861875059 H 0.0 **** 0.06
36310 H 104.94774828140434 4.803620450934432 32.47371523597673 H 0.0 **** 0.06
36311 C 102.56717158231945 46.902468390748425 50.75620067307395 C 0.0 **** -0.24
36312 H 101.94360815927516 46.107607029184805 50.344827531384055 H 0.0 **** 0.06
36313 H 102.4863242910445 46.90101803329392 51.84306419062764 H 0.0 **** 0.06
36314 H 102.23222433372436 47.8640271892734 50.36786743833636 H 0.0 **** 0.06
36315 H 103.60456355913252 46.73554388709039 50.467893960179 H 0.0 **** 0.06
36316 C 47.07614241785407 70.2550807088573 26.926013028466315 C 0.0 **** -0.24
36317 H 46.40651182303962 69.39808170428155 27.001883333742654 H 0.0 **** 0.06
36318 H 46.532009713506135 71.16481725720796 27.18164902668508 H 0.0 **** 0.06
36319 H 47.45269209041335 70.33096387944532 25.905769522462464 H 0.0 **** 0.06
36320 H 47.91129897660918 70.12599998021132 27.61400384704629 H 0.0 **** 0.06
36321 C 44.97330611810665 91.47063930943756 101.26928408016897 C 0.0 **** -0.24
36322 H 44.8297407626456 90.49839964111914 101.74108672930473 H 0.0 **** 0.06
36323 H 45.394917838500625 91.3316866408293 100.27299321295746 H 0.0 **** 0.06
36324 H 45.65524345390581 92.06978457057835 101.87212328123212 H 0.0 **** 0.06
36325 H 44.01353364077887 91.98063125855418 101.19007748670577 H 0.0 **** 0.06
36326 C 58.18043097967441 103.4387940913127 79.01864752131998 C 0.0 **** -0.24
36327 H 58.83423457409779 104.29802937798222 78.87071420015039 H 0.0 **** 0.06
36328 H 57.14267320256127 103.74640490297952 78.88678725055713 H 0.0 **** 0.06
36329 H 58.318659029323584 103.04714589298244 80.02644780153398 H 0.0 **** 0.06
36330 H 58.4261500248208 102.66577700041103 78.29113505126105 H 0.0 **** 0.06
36331 C 88.39071785666573 40.22664023071465 90.66241179264861 C 0.0 **** -0.24
36332 H 87.37235786007335 39.91583475972567 90.89652415997865 H 0.0 **** 0.06
36333 H 88.71734961148638 39.734784721241 89.74577577143313 H 0.0 **** 0.06
36334 H 89.05311547469978 39.94772463175535 91.48177690254475 H 0.0 **** 0.06
36335 H 88.4180605683664 41.30750692968962 90.52432753666493 H 0.0 **** 0.06
36336 C 47.95803164928594 37.92436691737385 83.0703159962139 C 0.0 **** -0.24
36337 H 48.076431176342055 36.88287470240461 82.77012562441381 H 0.0 **** 0.06
36338 H 48.894485696393616 38.45788392369147 82.90793951393555 H 0.0 **** 0.06
36339 H 47.692978017443835 37.969401933912096 84.12740643764414 H 0.0 **** 0.06
36340 H 47.167703873746916 38.385725506910326 82.4782864697706 H 0.0 **** 0.06
36341 C 40.160596124471255 80.29311853882666 96.42724885150307 C 0.0 **** -0.24
36342 H 41.237932395426014 80.45191850632398 96.38808503216447 H 0.0 **** 0.06
36343 H 39.9452936184085 79.41342599996707 97.03497464628055 H 0.0 **** 0.06
36344 H 39.778577101959996 80.14103783627849 95.41807463172542 H 0.0 **** 0.06
36345 H 39.68062930995626 81.16706304826465 96.86987470819524 H 0.0 **** 0.06
36346 C 66.35042977223388 99.07842562207439 31.290394166707955 C 0.0 **** -0.24
36347 H 67.17449742460725 98.61544433194435 30.747640509139586 H 0.0 **** 0.06
36348 H 66.1593725210676 100.07114765321755 30.88345340956718 H 0.0 **** 0.06
36349 H 66.61242588153051 99.1615095576167 32.34499304220262 H 0.0 **** 0.06
36350 H 65.45553779822026 98.46423115795636 31.18582235516928 H 0.0 **** 0.06
36351 C 52.52922352763382 33.03017238537036 34.329963985715096 C 0.0 **** -0.24
36352 H 53.09095692614547 33.86324123783654 33.90906551945059 H 0.0 **** 0.06
36353 H 51.476203187136825 33.132196868394615 34.06757519990822 H 0.0 **** 0.06
36354 H 52.63610708655597 33.03188431116686 35.41543105264668 H 0.0 **** 0.06
36355 H 52.91473435609167 32.09261055113969 33.92823278446974 H 0.0 **** 0.06
36356 C 65.8241045426648 66.61664966694477 66.2246774785815 C 0.0 **** -0.24
36357 H 65.47082566029884 67.57150958639883 65.83481174044854 H 0.0 **** 0.06
36358 H 66.72668511046888 66.31832201325372 65.69125396856188 H 0.0 **** 0.06
36359 H 65.05151848801647 65.86026248368478 66.08524670539416 H 0.0 **** 0.06
36360 H 66.04562762690189 66.71820676581174 67.28737047927662 H 0.0 **** 0.06
36361 C 63.97562392773655 28.20505875589255 85.3446585578537 C 0.0 **** -0.24
36362 H 64.0866706110229 28.11908380950129 86.4256195444157 H 0.0 **** 0.06
36363 H 64.28886676956607 29.199345608997106 85.02582741780347 H 0.0 **** 0.06
36364 H 62.931273559185826 28.048532108019955 85.07291149625445 H 0.0 **** 0.06
36365 H 64.59454766678924 27.4537220198481 84.85498704857096 H 0.0 **** 0.06
36366 C 87.29819555064518 8.686838057275267 12.845132214713573 C 0.0 **** -0.24
36367 H 88.1363182601516 9.382722105861646 12.858336973205198 H 0.0 **** 0.06
36368 H 86.38984705398002 9.206181502082089 13.15399496625318 H 0.0 **** 0.06
36369 H 87.49743610652337 7.8641801658212955 13.531416318917763 H 0.0 **** 0.06
36370 H 87.16749988633728 8.295104607557676 11.83609094572752 H 0.0 **** 0.06
36371 C 98.9646471601576 72.57935242063458 69.08534181342857 C 0.0 **** -0.24
36372 H 99.326779358316 71.59731596443379 68.78213668841623 H 0.0 **** 0.06
36373 H 98.48344613582412 72.50428320760285 70.06139251695298 H 0.0 **** 0.06
36374 H 98.24413781666692 72.94199221609566 68.35128770422449 H 0.0 **** 0.06
36375 H 99.80263806258483 73.27345480003162 69.1447203903394 H 0.0 **** 0.06
36376 C 68.61579548912326 51.916746288084674 36.74803153033815 C 0.0 **** -0.24
36377 H 67.85006815362581 51.42630929270523 37.34850374260668 H 0.0 **** 0.06
36378 H 68.79683098775953 51.33488013261107 35.844031168820834 H 0.0 **** 0.06
36379 H 69.53776671924632 51.98888258043709 37.32459557107882 H 0.0 **** 0.06
36380 H 68.27851609586116 52.91691314658546 36.47499563884594 H 0.0 **** 0.06
36381 C 53.095502053893355 99.19814701180078 75.0123358704057 C 0.0 **** -0.24
36382 H 53.55713184355653 98.23448890828308 75.22585090128399 H 0.0 **** 0.06
36383 H 53.84372919200022 99.8760047478503 74.59959646134922 H 0.0 **** 0.06
36384 H 52.69091722036554 99.61947381163331 75.93326942051928 H 0.0 **** 0.06
36385 H 52.29022995965108 99.06262057943619 74.29062669847045 H 0.0 **** 0.06
36386 C 100.84974701986556 42.88366468510889 35.46870138259166 C 0.0 **** -0.24
36387 H 100.48101787879821 43.47811948677879 34.63331106921251 H 0.0 **** 0.06
36388 H 101.87835283769236 43.17008634764744 35.69164865649455 H 0.0 **** 0.06
36389 H 100.81673783099933 41.82609781090729 35.20598589346568 H 0.0 **** 0.06
36390 H 100.22501085976306 43.060777649452646 36.34438822919449 H 0.0 **** 0.06
36391 C 50.78903734058221 72.06773330260853 67.53118450198949 C 0.0 **** -0.24
36392 H 51.47100105697109 72.8902600961514 67.74658846451851 H 0.0 **** 0.06
36393 H 50.248991682752205 72.2777025489994 66.60684235519724 H 0.0 **** 0.06
36394 H 50.078972436318395 71.96073605511798 68.35073016324279 H 0.0 **** 0.06
36395 H 51.357863906242926 71.14463674618501 67.4189133972402 H 0.0 **** 0.06
36396 C 65.76181930798771 2.0303130545638624 12.7827778724971 C 0.0 **** -0.24
36397 H 64.76971807820098 2.469282473578062 12.668389080725792 H 0.0 **** 0.06
36398 H 66.41716983956047 2.741293439751473 13.285517628749858 H 0.0 **** 0.06
36399 H 66.16879372068433 1.7923634746734933 11.799611779122909 H 0.0 **** 0.06
36400 H 65.69003124230625 1.1195992536740391 13.376645293445936 H 0.0 **** 0.06
36401 C 56.96274853715667 67.41681477216926 59.73700686980595 C 0.0 **** -0.24
36402 H 55.90202808537785 67.3633387828495 59.980549704010286 H 0.0 **** 0.06
36403 H 57.551281284532166 67.14672022302042 60.61527503249488 H 0.0 **** 0.06
36404 H 57.214717219288616 68.43180373569606 59.42887878138589 H 0.0 **** 0.06
36405 H 57.184502619443236 66.72488367170246 58.92486700537472 H 0.0 **** 0.06
36406 C 25.965268576475864 90.08356989495857 73.6789259577684 C 0.0 **** -0.24
36407 H 25.218952269447414 89.2893993302329 73.70139361742628 H 0.0 **** 0.06
36408 H 25.465385432546455 91.04821829344456 73.59534973321934 H 0.0 **** 0.06
36409 H 26.623980792334464 89.93782734456137 72.8228079565871 H 0.0 **** 0.06
36410 H 26.55199471195752 90.05608692237035 74.5970859828521 H 0.0 **** 0.06
36411 C 35.26950591148753 46.22734537441352 4.402908874356029 C 0.0 **** -0.24
36412 H 36.09641017390257 45.72579032737701 3.8996459154103036 H 0.0 **** 0.06
36413 H 34.82206270808044 45.5480153235161 5.128632638087225 H 0.0 **** 0.06
36414 H 34.52120863113393 46.51916989280221 3.667239617246622 H 0.0 **** 0.06
36415 H 35.64092424350687 47.1143576210103 4.915746458606009 H 0.0 **** 0.06
36416 C 82.27559386950301 88.68083706571002 72.27260360338784 C 0.0 **** -0.24
36417 H 82.17142120823925 89.6405216395029 72.77714022694568 H 0.0 **** 0.06
36418 H 82.57522632688526 87.92169717963552 72.99495581679764 H 0.0 **** 0.06
36419 H 83.03419234951465 88.76067556601997 71.49390541248249 H 0.0 **** 0.06
36420 H 81.32284414640586 88.39992487850814 71.82450206922226 H 0.0 **** 0.06
36421 C 8.625216692190378 28.929451427759318 71.52331093626651 C 0.0 **** -0.24
36422 H 9.0251111504963 27.91787536644867 71.58759908691181 H 0.0 **** 0.06
36423 H 7.579215178875415 28.888485378171794 71.21562857893277 H 0.0 **** 0.06
36424 H 9.196959905991491 29.499955238637455 70.79099622815727 H 0.0 **** 0.06
36425 H 8.698628280763614 29.412115893564987 72.49818246022068 H 0.0 **** 0.06
36426 C 89.04673014009208 0.34397441543960383 45.99170806401821 C 0.0 **** -0.24
36427 H 88.17249905040208 0.8856578328732496 45.62877026597124 H 0.0 **** 0.06
36428 H 88.76143841734765 -0.6785108988364499 46.239391586803265 H 0.0 **** 0.06
36429 H 89.43723491255827 0.8388886411065073 46.88106887534869 H 0.0 **** 0.06
36430 H 89.81223985519424 0.33053447883069964 45.21711148308549 H 0.0 **** 0.06
36431 C 32.20131801499987 82.33317253833394 14.110337186552414 C 0.0 **** -0.24
36432 H 31.458285263802168 82.0222828211661 14.844881692374628 H 0.0 **** 0.06
36433 H 31.714529822074866 82.91137668346212 13.32438746146218 H 0.0 **** 0.06
36434 H 32.672045696068295 81.45164655524007 13.674877535534506 H 0.0 **** 0.06
36435 H 32.959134078388445 82.94701895934767 14.596716742317653 H 0.0 **** 0.06
36436 C 14.393376402228256 41.08533655031175 56.459762766186465 C 0.0 **** -0.24
36437 H 15.21509634944644 41.791107645580475 56.33602020339174 H 0.0 **** 0.06
36438 H 13.528095503265632 41.43499657325175 55.896533198391786 H 0.0 **** 0.06
36439 H 14.134588706849911 41.011380364784756 57.516271234612084 H 0.0 **** 0.06
36440 H 14.697459551026725 40.10558090202441 56.09003711010787 H 0.0 **** 0.06
36441 C 89.91664333240996 58.519859383372726 106.61614523828968 C 0.0 **** -0.24
36442 H 89.46071503085355 57.5299265219179 106.58130180807291 H 0.0 **** 0.06
36443 H 90.95200708186658 58.431103698886155 106.94449264886197 H 0.0 **** 0.06
36444 H 89.36527613376245 59.14861747195786 107.314464029683 H 0.0 **** 0.06
36445 H 89.88668737224461 58.96768556701375 105.62290506041643 H 0.0 **** 0.06
36446 C 56.4042522113864 1.869767246990179 100.12164741522606 C 0.0 **** -0.24
36447 H 55.9298442508802 2.095492923594435 101.07713040974198 H 0.0 **** 0.06
36448 H 57.229712944983184 1.175956746754025 100.28102833315775 H 0.0 **** 0.06
36449 H 56.78187122656309 2.790768226802186 99.67707818636903 H 0.0 **** 0.06
36450 H 55.67284092190778 1.416171970032508 99.45236975794543 H 0.0 **** 0.06
36451 C 20.602812155250547 23.295051465534755 20.395081053233802 C 0.0 **** -0.24
36452 H 20.42300151900335 22.964382155498583 21.417922995814052 H 0.0 **** 0.06
36453 H 21.13018205380382 22.512276375634855 19.848714953951745 H 0.0 **** 0.06
36454 H 21.208383457474667 24.2010611404242 20.406978792605695 H 0.0 **** 0.06
36455 H 19.649713534916614 23.500096758399394 19.907245866054183 H 0.0 **** 0.06
36456 C 88.89619340062319 58.12594189857116 31.791555635919508 C 0.0 **** -0.24
36457 H 89.41737410322864 57.35674237045122 32.36232574135067 H 0.0 **** 0.06
36458 H 88.94855329451181 57.88690170411181 30.7292929835794 H 0.0 **** 0.06
36459 H 89.36789796344522 59.09243527361039 31.971361385182945 H 0.0 **** 0.06
36460 H 87.85367573224426 58.165491226116146 32.10455945330705 H 0.0 **** 0.06
36461 C 54.301652895169724 63.418484497557984 32.87679148620427 C 0.0 **** -0.24
36462 H 55.26610719154755 63.780122939113596 32.519084494127185 H 0.0 **** 0.06
36463 H 53.54668184982813 64.19007391489993 32.726138920456606 H 0.0 **** 0.06
36464 H 54.373957330452185 63.18076525811091 33.9380738883421 H 0.0 **** 0.06
36465 H 54.02232571387742 62.52243485535956 32.321957184362816 H 0.0 **** 0.06
36466 C 2.4797468012426407 18.680486315719435 40.92597649251343 C 0.0 **** -0.24
36467 H 3.051873099047043 17.802388680039826 40.626637648461895 H 0.0 **** 0.06
36468 H 3.1348097914163873 19.381715138633936 41.44480537764747 H 0.0 **** 0.06
36469 H 1.6717947274679545 18.37754379588837 41.591886380230875 H 0.0 **** 0.06
36470 H 2.0607392991805398 19.160641098580214 40.04192910441293 H 0.0 **** 0.06
36471 C 90.39475479373114 75.21106883950273 53.53117302841741 C 0.0 **** -0.24
36472 H 90.8227073309243 74.44011659353757 54.17141902524628 H 0.0 **** 0.06
36473 H 91.13097026275985 76.0002730467649 53.37146919720578 H 0.0 **** 0.06
36474 H 89.50973019763863 75.63155052380688 54.01006172618281 H 0.0 **** 0.06
36475 H 90.11603064067366 74.77452256458605 52.57276192445977 H 0.0 **** 0.06
36476 C 77.75193539002998 58.923889638433096 23.76713743525528 C 0.0 **** -0.24
36477 H 77.6664495615916 59.21918482947504 22.721709484876214 H 0.0 **** 0.06
36478 H 77.76297636095114 59.813861416236726 24.396754033934286 H 0.0 **** 0.06
36479 H 78.67627342901562 58.3648532843792 23.91229681934692 H 0.0 **** 0.06
36480 H 76.90164328892826 58.29741692528082 24.03867387872998 H 0.0 **** 0.06
36481 C 57.1036983999353 52.621703406761526 93.88593038006618 C 0.0 **** -0.24
36482 H 57.845256794711815 52.150628548719396 93.24168331876979 H 0.0 **** 0.06
36483 H 56.20764925102475 52.00221852641499 93.92332170582645 H 0.0 **** 0.06
36484 H 56.85024658966603 53.60457892538909 93.4900092352664 H 0.0 **** 0.06
36485 H 57.513381771611535 52.72954484480954 94.89114555629885 H 0.0 **** 0.06
36486 C 103.27662291572446 26.690911804179514 35.519762867467904 C 0.0 **** -0.24
36487 H 103.80404809542961 27.104802781185526 36.37873761112104 H 0.0 **** 0.06
36488 H 103.44056264789319 27.330278212204725 34.65181407339432 H 0.0 **** 0.06
36489 H 102.21035301452636 26.641718866847704 35.73839318594074 H 0.0 **** 0.06
36490 H 103.65236651068457 25.689712485443216 35.30980962964787 H 0.0 **** 0.06
36491 C 35.07654192169634 22.671669852290673 76.26823356578329 C 0.0 **** -0.24
36492 H 34.12215447408627 22.542639825160094 76.77858594681094 H 0.0 **** 0.06
36493 H 35.86826305158306 22.20196152813215 76.85320580513071 H 0.0 **** 0.06
36494 H 35.28841704654046 23.734199478003156 76.1564107004914 H 0.0 **** 0.06
36495 H 35.02688629324379 22.20506347865709 75.28379587183034 H 0.0 **** 0.06
36496 C 88.91477932477099 33.61489579992315 94.44409993812604 C 0.0 **** -0.24
36497 H 89.14486986209513 33.14415865478372 95.40032147551565 H 0.0 **** 0.06
36498 H 89.15801854053741 32.92677599460268 93.63393540674397 H 0.0 **** 0.06
36499 H 89.5036403730227 34.52555099450143 94.33697168231359 H 0.0 **** 0.06
36500 H 87.8540478293555 33.86056363582625 94.40584207554218 H 0.0 **** 0.06
36501 C 49.801749702915345 45.98955205139296 12.861509947093111 C 0.0 **** -0.24
36502 H 50.390737103888 45.14234085222417 12.51122477874992 H 0.0 **** 0.06
36503 H 48.900513388461206 46.079991792590135 12.25555166266372 H 0.0 **** 0.06
36504 H 50.39139603203529 46.90184870246353 12.77586126066808 H 0.0 **** 0.06
36505 H 49.52417406346717 45.83313433516005 13.904484551451901 H 0.0 **** 0.06
36506 C 19.592367309326647 57.11177552960622 104.65597457809947 C 0.0 **** -0.24
36507 H 19.03658547193362 56.17435212274639 104.6816576967152 H 0.0 **** 0.06
36508 H 18.895184976513605 57.94866994033547 104.69319332763503 H 0.0 **** 0.06
36509 H 20.173185049090222 57.16343428921781 103.73489866014279 H 0.0 **** 0.06
36510 H 20.26449696225822 57.15912995310581 105.51250477278803 H 0.0 **** 0.06
36511 C 79.23472006690525 101.38000485133543 2.7967993300942737 C 0.0 **** -0.24
36512 H 80.31391634482135 101.22815189482893 2.762538314085006 H 0.0 **** 0.06
36513 H 78.73302362465459 100.41357757556807 2.8335506354627 H 0.0 **** 0.06
36514 H 78.91595353399761 101.92106575353816 1.9056951163477578 H 0.0 **** 0.06
36515 H 78.97716715310222 101.9580973866995 3.6837267122584763 H 0.0 **** 0.06
36516 C 37.9007102894046 81.31583389299499 0.15844580190795288 C 0.0 **** -0.24
36517 H 38.102027078904925 80.56817692071108 -0.6094821643575927 H 0.0 **** 0.06
36518 H 38.49457317077011 82.20793362114239 -0.03895134045054771 H 0.0 **** 0.06
36519 H 38.16413539252806 80.91120453060282 1.1354150837441086 H 0.0 **** 0.06
36520 H 36.84170208314442 81.57308439250876 0.14569846121880836 H 0.0 **** 0.06
36521 C 100.85081647352254 70.04129975558791 15.974678264101659 C 0.0 **** -0.24
36522 H 101.32306641702687 71.01139817378119 16.127428801945225 H 0.0 **** 0.06
36523 H 101.52515026377327 69.25285808271539 16.310747350177948 H 0.0 **** 0.06
36524 H 100.63371006955263 69.90602238300173 14.915674725481804 H 0.0 **** 0.06
36525 H 99.9235814618776 69.99527893216386 16.545780725499466 H 0.0 **** 0.06
36526 C 78.30379710365997 2.0774789886274334 70.54401201174406 C 0.0 **** -0.24
36527 H 78.86264107718286 2.2525324022586233 69.62501506103106 H 0.0 **** 0.06
36528 H 78.65520941323439 1.1584638414295938 71.01222693934804 H 0.0 **** 0.06
36529 H 77.24321560146578 1.9859517893360419 70.31186268422323 H 0.0 **** 0.06
36530 H 78.45489520152093 2.9145057079163053 71.22551574143327 H 0.0 **** 0.06
36531 C 22.96246217784993 0.12012715374072513 37.50893691149719 C 0.0 **** -0.24
36532 H 22.451555265578207 -0.8199168982779952 37.299425485543594 H 0.0 **** 0.06
36533 H 23.485031625147414 0.45628544551703953 36.61257172385163 H 0.0 **** 0.06
36534 H 23.681004269056373 -0.02914470033780958 38.31432119479092 H 0.0 **** 0.06
36535 H 22.232303945609644 0.8714166896085374 37.807082212845984 H 0.0 **** 0.06
36536 C 2.068745976619198 2.9577382680560502 78.08833633596653 C 0.0 **** -0.24
36537 H 3.1119219355219627 3.0443193426970723 78.39250955896937 H 0.0 **** 0.06
36538 H 1.9808864473977792 3.1784822836575843 77.02482871397773 H 0.0 **** 0.06
36539 H 1.4653071700217026 3.6648195512678763 78.657445611595 H 0.0 **** 0.06
36540 H 1.718300270080391 1.9439216072778516 78.2804593872088 H 0.0 **** 0.06
36541 C 77.18236639511414 91.28617770359469 102.61865842440332 C 0.0 **** -0.24
36542 H 77.58323813241459 90.570799838282 103.33552590672463 H 0.0 **** 0.06
36543 H 76.17976651017449 90.97843026683475 102.31991983995513 H 0.0 **** 0.06
36544 H 77.82848914330533 91.32242684430139 101.74142692045271 H 0.0 **** 0.06
36545 H 77.13713094563587 92.2739883154288 103.07711305864345 H 0.0 **** 0.06
36546 C 21.34118683920255 15.32189515173826 72.73273049357925 C 0.0 **** -0.24
36547 H 21.61255535851791 14.922982624822055 71.7552727532373 H 0.0 **** 0.06
36548 H 20.90154539208453 16.312750249628095 72.61111486316798 H 0.0 **** 0.06
36549 H 22.231518310878357 15.393161656263317 73.35656830081672 H 0.0 **** 0.06
36550 H 20.616912786566985 14.659193689822416 73.2070527522933 H 0.0 **** 0.06
36551 C 106.07581750990022 21.94045577149393 84.57655856788159 C 0.0 **** -0.24
36552 H 105.21084936182295 22.28080339146527 85.14633864223794 H 0.0 **** 0.06
36553 H 106.89043579605597 22.65654659432562 84.68974752120835 H 0.0 **** 0.06
36554 H 105.8072031032247 21.8587480722922 83.52357668932018 H 0.0 **** 0.06
36555 H 106.39412289778102 20.96639348296742 84.94691651304066 H 0.0 **** 0.06
36556 C 44.605453882666495 8.52263167995828 33.64623198364697 C 0.0 **** -0.24
36557 H 45.65268041004123 8.781233845369186 33.8011455161182 H 0.0 **** 0.06
36558 H 44.022197644257915 8.836916957443819 34.51255622747544 H 0.0 **** 0.06
36559 H 44.51291933484441 7.444369305472932 33.51736265651968 H 0.0 **** 0.06
36560 H 44.234608984007934 9.027931518887613 32.75514624969884 H 0.0 **** 0.06
36561 C 18.48166917001609 14.028681115245433 78.36427496051084 C 0.0 **** -0.24
36562 H 17.526490230426162 13.904777603480667 78.87374996745594 H 0.0 **** 0.06
36563 H 18.337528255743038 14.623257949529833 77.46175486310199 H 0.0 **** 0.06
36564 H 18.87897819528247 13.050167752288267 78.09434561988274 H 0.0 **** 0.06
36565 H 19.182957491273513 14.535402601399266 79.02677303925893 H 0.0 **** 0.06
36566 C 67.22115848682819 64.23621827682439 80.87184868934052 C 0.0 **** -0.24
36567 H 66.5610989863685 65.0479963773549 80.56682170650596 H 0.0 **** 0.06
36568 H 66.63433718115493 63.330465133295974 81.02727630095198 H 0.0 **** 0.06
36569 H 67.72603210005741 64.50708285604091 81.79852914719551 H 0.0 **** 0.06
36570 H 67.96346683127678 64.05970867107973 80.0923665119417 H 0.0 **** 0.06
36571 C 8.537077309330698 84.76815968017411 24.39737365380952 C 0.0 **** -0.24
36572 H 9.497688480133377 84.31667954829625 24.64890428409009 H 0.0 **** 0.06
36573 H 8.671154979827236 85.83814237336641 24.23231301922956 H 0.0 **** 0.06
36574 H 7.836440671077639 84.61084921416965 25.21760620638075 H 0.0 **** 0.06
36575 H 8.146007184559892 84.30664019872205 23.4906500839413 H 0.0 **** 0.06
36576 C 51.45615231988003 41.300113233008744 18.55304350287377 C 0.0 **** -0.24
36577 H 51.64896592555286 42.15417214149332 19.201970296146115 H 0.0 **** 0.06
36578 H 50.99084035521696 40.5017413367803 19.132127133272437 H 0.0 **** 0.06
36579 H 52.39704061641689 40.94419552435926 18.133100037028907 H 0.0 **** 0.06
36580 H 50.78771221498556 41.60053550844897 17.745956762755107 H 0.0 **** 0.06
36581 C 33.61623652445685 22.039441382252992 96.88306910860291 C 0.0 **** -0.24
36582 H 33.672262001488136 22.32885502407885 95.83356989068608 H 0.0 **** 0.06
36583 H 33.09600549970189 21.086219686722806 96.96934612444238 H 0.0 **** 0.06
36584 H 33.07402829322217 22.80208279021637 97.4413235177214 H 0.0 **** 0.06
36585 H 34.62424005947102 21.941947705513428 97.287213390744 H 0.0 **** 0.06
36586 C 17.614736020420423 103.18080993358231 65.2785930174247 C 0.0 **** -0.24
36587 H 18.68731227548369 103.04382446082465 65.14205052590484 H 0.0 **** 0.06
36588 H 17.40205574081267 103.34953308274581 66.33429198464721 H 0.0 **** 0.06
36589 H 17.088851428933822 102.28889102224102 64.93893918080248 H 0.0 **** 0.06
36590 H 17.28225799828118 104.04225771005346 64.69887858072705 H 0.0 **** 0.06
36591 C 85.9805218829795 65.46916388946548 11.309365888197732 C 0.0 **** -0.24
36592 H 86.13411845490046 64.39710949453402 11.432910119632425 H 0.0 **** 0.06
36593 H 86.01709774755048 65.72157606517337 10.249052697330399 H 0.0 **** 0.06
36594 H 86.76141800554288 66.01230308459725 11.840248832171511 H 0.0 **** 0.06
36595 H 85.00616782218488 65.74434105836005 11.714582437493306 H 0.0 **** 0.06
36596 C 55.63652727693943 80.9118471569966 41.22084996308241 C 0.0 **** -0.24
36597 H 55.834882763952635 79.84074556210913 41.273159029609964 H 0.0 **** 0.06
36598 H 54.63602984219028 81.11488133355238 41.60348260357711 H 0.0 **** 0.06
36599 H 55.70447881040366 81.24384640054262 40.18479841747482 H 0.0 **** 0.06
36600 H 56.37165932625334 81.446777279392 41.82286440011414 H 0.0 **** 0.06
36601 C 44.20364052142338 104.47848668640637 35.55283106937686 C 0.0 **** -0.24
36602 H 44.01083549518654 104.63553029980095 36.614559979582374 H 0.0 **** 0.06
36603 H 44.686041697144844 105.36305425400005 35.13716891801996 H 0.0 **** 0.06
36604 H 43.26121231213989 104.30171738957355 35.03518798799238 H 0.0 **** 0.06
36605 H 44.855855338281174 103.61433318259739 35.42618089912803 H 0.0 **** 0.06
36606 C 42.75846968705471 56.98441392585608 40.70163905118369 C 0.0 **** -0.24
36607 H 43.246820012357176 57.53810536512271 41.504178461075576 H 0.0 **** 0.06
36608 H 42.84319111594377 55.91533392306412 40.89372987350281 H 0.0 **** 0.06
36609 H 43.23872166857308 57.22283572350419 39.75244265189766 H 0.0 **** 0.06
36610 H 41.70656627742639 57.26379710220756 40.656584695038426 H 0.0 **** 0.06
36611 C 85.85841241094379 102.50391863162159 55.58703668872835 C 0.0 **** -0.24
36612 H 86.88504911998218 102.65621129714471 55.25502360614837 H 0.0 **** 0.06
36613 H 85.80725965062568 101.60868735645464 56.20873129180427 H 0.0 **** 0.06
36614 H 85.21070805673556 102.3812591403577 54.72008897589899 H 0.0 **** 0.06
36615 H 85.53230551083796 103.36771994312771 56.16602742613304 H 0.0 **** 0.06
36616 C 50.88835532721592 31.61950539862707 91.09489744969147 C 0.0 **** -0.24
36617 H 51.412916198968986 31.258887609722137 91.98025413135895 H 0.0 **** 0.06
36618 H 50.93864541922832 32.70737498766613 91.06172630981504 H 0.0 **** 0.06
36619 H 49.845215034780324 31.303953555544524 91.13789906802275 H 0.0 **** 0.06
36620 H 51.357109691065006 31.205588779041506 90.20251577493116 H 0.0 **** 0.06
36621 C 27.964636834164594 82.5468871143434 82.6688552616735 C 0.0 **** -0.24
36622 H 28.978825219248506 82.1488017599172 82.70742594304127 H 0.0 **** 0.06
36623 H 27.987351428195325 83.56048411092559 82.26626990552181 H 0.0 **** 0.06
36624 H 27.543732440830922 82.56459962529675 83.67376989994835 H 0.0 **** 0.06
36625 H 27.350719827532657 81.91440874066586 82.02828857213078 H 0.0 **** 0.06
36626 C 107.04719779687377 89.49289609054212 28.960955963592625 C 0.0 **** -0.24
36627 H 107.12630161638532 88.73041493343821 28.185921907728158 H 0.0 **** 0.06
36628 H 106.85533594596814 89.0145020414743 29.921757141706422 H 0.0 **** 0.06
36629 H 106.22820582201149 90.17032777359557 28.721132852643365 H 0.0 **** 0.06
36630 H 107.97998915465286 90.05418198463494 29.01450156000945 H 0.0 **** 0.06
36631 C 68.17001420726722 92.64526665221312 39.60910732037985 C 0.0 **** -0.24
36632 H 68.10868688581023 91.70810724877913 39.05548656669646 H 0.0 **** 0.06
36633 H 68.69538909418883 93.38776384029308 39.00750619525519 H 0.0 **** 0.06
36634 H 68.710868566523 92.48234013201093 40.541402994970326 H 0.0 **** 0.06
36635 H 67.16413519736953 93.00273364627614 39.83101835187222 H 0.0 **** 0.06
36636 C 51.64211085578845 105.31666127149704 87.24189474604542 C 0.0 **** -0.24
36637 H 52.659909441804075 105.68337196249286 87.37294431650614 H 0.0 **** 0.06
36638 H 51.42532842046836 104.56770826820497 88.00458115050351 H 0.0 **** 0.06
36639 H 51.542116563018524 104.86825324021962 86.25366447624678 H 0.0 **** 0.06
36640 H 50.941962794813406 106.14606796711611 87.33831000290904 H 0.0 **** 0.06
36641 C 33.3712899042182 40.66535701056799 36.25087636048141 C 0.0 **** -0.24
36642 H 33.74463072145264 39.64921199947489 36.38057481060133 H 0.0 **** 0.06
36643 H 33.09173619291698 40.819255646951156 35.208164662733054 H 0.0 **** 0.06
36644 H 34.14964173921264 41.375837115402376 36.52766528455163 H 0.0 **** 0.06
36645 H 32.4984580790601 40.814803026826944 36.886731074939405 H 0.0 **** 0.06
36646 C 54.99192471454696 74.77266179664343 30.616390883748807 C 0.0 **** -0.24
36647 H 54.2001422413114 75.46763082138972 30.335600380771687 H 0.0 **** 0.06
36648 H 55.696609666116636 75.27491979102746 31.28006986424461 H 0.0 **** 0.06
36649 H 55.513384238650524 74.43585808601205 29.72103850489834 H 0.0 **** 0.06
36650 H 54.55772307645743 73.91464794499598 31.129265975116944 H 0.0 **** 0.06
36651 C 78.22215860028189 28.73743213984497 76.62412997763482 C 0.0 **** -0.24
36652 H 79.02527404165644 28.554089194740527 75.90996285118905 H 0.0 **** 0.06
36653 H 78.60180187605013 28.606428341083216 77.63749106789342 H 0.0 **** 0.06
36654 H 77.40975812731138 28.03362755548082 76.4447832238248 H 0.0 **** 0.06
36655 H 77.85450742515572 29.756262972513582 76.50249096478993 H 0.0 **** 0.06
36656 C 46.72582286919288 83.73946578732443 19.527981358471095 C 0.0 **** -0.24
36657 H 45.66701451325355 83.66160172178303 19.77363504043987 H 0.0 **** 0.06
36658 H 47.29883812026884 83.91051214952361 20.439143999444354 H 0.0 **** 0.06
36659 H 46.87813583100481 84.57199617203204 18.84018074339457 H 0.0 **** 0.06
36660 H 47.05798050182082 82.81412784181114 19.056938135991984 H 0.0 **** 0.06
36661 C 74.07511847423193 68.47977852689976 21.515783838805817 C 0.0 **** -0.24
36662 H 73.62006193057336 68.01966677536464 22.391643030925962 H 0.0 **** 0.06
36663 H 74.45245314786133 67.70192272075977 20.851401696980076 H 0.0 **** 0.06
36664 H 74.89832893494143 69.12164527959177 21.82882105079804 H 0.0 **** 0.06
36665 H 73.33012996351957 69.07683638494692 20.98991528423042 H 0.0 **** 0.06
36666 C 50.64884415764547 43.65490626068222 51.25665907950724 C 0.0 **** -0.24
36667 H 51.103820735860864 43.86233329365873 52.22548262984397 H 0.0 **** 0.06
36668 H 51.42103447595031 43.655936901685656 50.48621385854017 H 0.0 **** 0.06
36669 H 49.909137194619035 44.42205715259322 51.031382031290256 H 0.0 **** 0.06
36670 H 50.164354235681 42.67897340628127 51.28383034726458 H 0.0 **** 0.06
36671 C 59.32384094864297 43.640063374547104 30.483299978860543 C 0.0 **** -0.24
36672 H 59.037168744505145 44.670073094892174 30.270904744185515 H 0.0 **** 0.06
36673 H 59.64763248175886 43.15641402661066 29.56267031588021 H 0.0 **** 0.06
36674 H 58.468358552924556 43.10360070755442 30.895655962732064 H 0.0 **** 0.06
36675 H 60.13987200127751 43.63236594737926 31.20589791584598 H 0.0 **** 0.06
36676 C 33.344289047815806 49.51483728625047 18.872674427730885 C 0.0 **** -0.24
36677 H 34.17550247049357 49.853105574544685 19.49157387920576 H 0.0 **** 0.06
36678 H 32.40880427348938 49.64645593803126 19.416785164271175 H 0.0 **** 0.06
36679 H 33.47866220705163 48.46103123680452 18.628237562310687 H 0.0 **** 0.06
36680 H 33.31518188597286 50.09987787228937 17.953233287141842 H 0.0 **** 0.06
36681 C 39.51112116453322 103.05229684230572 0.3873736161427015 C 0.0 **** -0.24
36682 H 38.84410766529248 102.83578425318015 -0.44661137270307805 H 0.0 **** 0.06
36683 H 39.2388030628598 102.43005051248834 1.2402968818011635 H 0.0 **** 0.06
36684 H 39.421353164095365 104.10281818432188 0.6606706018423392 H 0.0 **** 0.06
36685 H 40.539772519069345 102.838386901698 0.09470537156208003 H 0.0 **** 0.06
36686 C 31.785330227796884 37.79935254272203 18.398196446376048 C 0.0 **** -0.24
36687 H 31.55095937189907 36.827645252674756 18.83208574044852 H 0.0 **** 0.06
36688 H 32.85653375039248 37.86429985850563 18.209322062644375 H 0.0 **** 0.06
36689 H 31.489743826064498 38.58718659338976 19.091804363736486 H 0.0 **** 0.06
36690 H 31.24242410779857 37.919172488191975 17.46024129400665 H 0.0 **** 0.06
36691 C 57.77673920152375 17.15692747696525 85.14287106923388 C 0.0 **** -0.24
36692 H 58.224295736600254 18.026868136524797 85.62268047725277 H 0.0 **** 0.06
36693 H 56.83236761751175 16.91755250395832 85.63121379571444 H 0.0 **** 0.06
36694 H 58.45448502603472 16.307625453098126 85.22530496259847 H 0.0 **** 0.06
36695 H 57.59704226912737 17.37705081260185 84.08992828913466 H 0.0 **** 0.06
36696 C 63.11341492149114 40.721179207545816 60.64181515857922 C 0.0 **** -0.24
36697 H 62.13588083573464 40.30020027743922 60.40798716664591 H 0.0 **** 0.06
36698 H 63.18469204705377 40.900718057881534 61.71447263929531 H 0.0 **** 0.06
36699 H 63.24053411503024 41.66231723362063 60.106667849816404 H 0.0 **** 0.06
36700 H 63.89211147184511 40.02285771931429 60.33717860468403 H 0.0 **** 0.06
36701 C 20.077117082128837 60.67330630481922 72.56579067653792 C 0.0 **** -0.24
36702 H 20.06626448183991 60.263509855724244 71.55519438901626 H 0.0 **** 0.06
36703 H 20.979144256336298 61.27027228689299 72.70531258984323 H 0.0 **** 0.06
36704 H 20.065550043733438 59.857163604851515 73.28831473261073 H 0.0 **** 0.06
36705 H 19.198863351521098 61.30069048095346 72.71176362648015 H 0.0 **** 0.06
36706 C 34.778962853427885 12.844400768935657 41.9987364671029 C 0.0 **** -0.24
36707 H 35.794219588501164 12.554443391555566 42.27018297560832 H 0.0 **** 0.06
36708 H 34.07135332491623 12.135609311523979 42.429822503192014 H 0.0 **** 0.06
36709 H 34.67952562592171 12.842178309480715 40.9129155599376 H 0.0 **** 0.06
36710 H 34.571645153701894 13.843263378978122 42.38115444768107 H 0.0 **** 0.06
36711 C 78.86490986944378 49.78970964555032 54.54068355295277 C 0.0 **** -0.24
36712 H 77.95897498905634 50.20662305075547 54.10071319871025 H 0.0 **** 0.06
36713 H 78.7163272852759 48.72801004410542 54.73851402039736 H 0.0 **** 0.06
36714 H 79.08503584131569 50.305613279149384 55.47508640345927 H 0.0 **** 0.06
36715 H 79.69691261816746 49.91845537766477 53.84894542825759 H 0.0 **** 0.06
36716 C 62.98179202654535 52.55996695159672 86.11080697736253 C 0.0 **** -0.24
36717 H 63.49029190042407 51.937943049329135 86.84766643915816 H 0.0 **** 0.06
36718 H 61.91233474104527 52.57446751503065 86.32239049208522 H 0.0 **** 0.06
36719 H 63.14988734296867 52.151531961099124 85.11391000869179 H 0.0 **** 0.06
36720 H 63.37525132615306 53.57486336634068 86.15854279377186 H 0.0 **** 0.06
36721 C 22.0950977313138 39.21408018664573 70.01235615590434 C 0.0 **** -0.24
36722 H 21.30416885763553 38.46431995261054 70.05352502068746 H 0.0 **** 0.06
36723 H 22.21738695816309 39.66597443113807 70.99616334998242 H 0.0 **** 0.06
36724 H 21.828236502114876 39.98356754749304 69.2885944896338 H 0.0 **** 0.06
36725 H 23.02936122342173 38.73940459504709 69.71076609596321 H 0.0 **** 0.06
36726 C 43.45085659489706 1.0989480949843227 54.34660706884693 C 0.0 **** -0.24
36727 H 44.31052620463464 1.7283924374077344 54.1161972183589 H 0.0 **** 0.06
36728 H 43.69112595616696 0.06005866190132281 54.1189491643183 H 0.0 **** 0.06
36729 H 42.59878374105503 1.4145595595641538 53.744527369714014 H 0.0 **** 0.06
36730 H 43.204372293043804 1.1929998333084342 55.40374727840713 H 0.0 **** 0.06
36731 C 28.655784893153736 87.34566407517491 45.33305740163887 C 0.0 **** -0.24
36732 H 28.52269860520667 88.17028648881166 44.63214823283059 H 0.0 **** 0.06
36733 H 27.71043432479817 86.81539109359488 45.45251711583224 H 0.0 **** 0.06
36734 H 28.978126300530164 87.73790948923983 46.2973697157099 H 0.0 **** 0.06
36735 H 29.411335756252782 86.66128338149443 44.948003328883495 H 0.0 **** 0.06
36736 C 57.0680564636192 1.957027296994852 8.32340963687497 C 0.0 **** -0.24
36737 H 56.907476397017206 3.021495823970895 8.49755772156999 H 0.0 **** 0.06
36738 H 57.566477831734744 1.5196913959538847 9.188906712289324 H 0.0 **** 0.06
36739 H 57.690482217554916 1.8242896600398808 7.439345986036798 H 0.0 **** 0.06
36740 H 56.10774611189305 1.4651788924559241 8.169702559143715 H 0.0 **** 0.06
36741 C 60.28349554338476 15.067501038866709 2.8511114959957906 C 0.0 **** -0.24
36742 H 60.381401471234796 13.988015624138253 2.7337769282927002 H 0.0 **** 0.06
36743 H 60.551299763220584 15.348007057567923 3.8697090481559497 H 0.0 **** 0.06
36744 H 59.253006397781206 15.362651717048383 2.650969171179261 H 0.0 **** 0.06
36745 H 60.948555547260085 15.570211886722802 2.1480746858969875 H 0.0 **** 0.06
36746 C 96.27065811045105 39.07071622349224 52.782001536135 C 0.0 **** -0.24
36747 H 95.24302390077008 39.12922690600453 53.14011341787992 H 0.0 **** 0.06
36748 H 96.95471647471919 39.14066953450947 53.62783922952997 H 0.0 **** 0.06
36749 H 96.46139552383221 39.89077388290997 52.0899969370123 H 0.0 **** 0.06
36750 H 96.42217653400718 38.12072315715312 52.269011213049055 H 0.0 **** 0.06
36751 C 32.894903371508974 73.4597706676351 14.708044304668277 C 0.0 **** -0.24
36752 H 33.49299184990741 73.1908405451847 13.837706759962629 H 0.0 **** 0.06
36753 H 31.984448256343796 72.86130737865903 14.722667757239492 H 0.0 **** 0.06
36754 H 32.63487314512051 74.51697382375062 14.657314978627738 H 0.0 **** 0.06
36755 H 33.46904041648452 73.27003126469913 15.615471086185323 H 0.0 **** 0.06
36756 C 39.26250924467237 35.71779293668453 85.19290939760492 C 0.0 **** -0.24
36757 H 38.97483005711831 34.68804558805516 84.9781680572159 H 0.0 **** 0.06
36758 H 39.68436139045713 35.77468575560897 86.19667466444167 H 0.0 **** 0.06
36759 H 38.3842466925002 36.35997234899014 85.13041797379071 H 0.0 **** 0.06
36760 H 40.00566577736629 36.04646214394029 84.4667023968072 H 0.0 **** 0.06
36761 C 24.970920347266798 20.717390715755982 20.718461125334798 C 0.0 **** -0.24
36762 H 25.952905310252874 20.951242680624944 20.307809842798918 H 0.0 **** 0.06
36763 H 24.199992304757274 21.00824954376904 20.004379311572052 H 0.0 **** 0.06
36764 H 24.827570958969204 21.264370012572556 21.650900591763616 H 0.0 **** 0.06
36765 H 24.90302570624155 19.647005185202488 20.910241717376948 H 0.0 **** 0.06
36766 C 26.26264227386656 5.666498674542083 32.11310635523381 C 0.0 **** -0.24
36767 H 25.526662416459487 5.05499877185315 32.6359469287247 H 0.0 **** 0.06
36768 H 25.88500375886946 6.684483403018305 32.014739827279975 H 0.0 **** 0.06
36769 H 26.444075902318048 5.248924317067093 31.123314382251152 H 0.0 **** 0.06
36770 H 27.193350862253396 5.677768794533193 32.68009418772187 H 0.0 **** 0.06
36771 C 66.23533643403223 88.83511890811056 41.2215186989813 C 0.0 **** -0.24
36772 H 66.11243792660288 87.75191708948061 41.19038119762695 H 0.0 **** 0.06
36773 H 66.33245951719763 89.16031112878582 42.257252653985205 H 0.0 **** 0.06
36774 H 65.36571545735607 89.31133106639399 40.77014747434163 H 0.0 **** 0.06
36775 H 67.13149591145256 89.11413761842032 40.667458729380144 H 0.0 **** 0.06
36776 C 88.61465748816386 36.69188113916221 36.3975602263359 C 0.0 **** -0.24
36777 H 89.08893718611674 37.21021421789647 37.23170071489111 H 0.0 **** 0.06
36778 H 87.53126325712965 36.786899361486526 36.480772354178185 H 0.0 **** 0.06
36779 H 88.89028424923585 35.63740093178247 36.42158324193483 H 0.0 **** 0.06
36780 H 88.94770354582806 37.13402327027 35.459311696911755 H 0.0 **** 0.06
36781 C 100.44749186133342 38.191461284805115 10.438147258289291 C 0.0 **** -0.24
36782 H 99.74117409161128 37.48022890062833 10.01034894739368 H 0.0 **** 0.06
36783 H 99.90764238844628 38.92130190123282 11.041885572156446 H 0.0 **** 0.06
36784 H 100.97850365949263 38.70353651761843 9.636619301098904 H 0.0 **** 0.06
36785 H 101.16232171231454 37.658888314134146 11.06625001228852 H 0.0 **** 0.06
36786 C 91.62719250875168 56.33346294899417 48.13436902782005 C 0.0 **** -0.24
36787 H 92.32341050954417 57.17184829038422 48.13875082726724 H 0.0 **** 0.06
36788 H 90.60833223600116 56.70724536375826 48.026173730106485 H 0.0 **** 0.06
36789 H 91.71579708812376 55.7837585294709 49.07093239690347 H 0.0 **** 0.06
36790 H 91.86226580950049 55.671004674848916 47.30065604631388 H 0.0 **** 0.06
36791 C 10.184899477764006 103.87174918647844 18.564280236618117 C 0.0 **** -0.24
36792 H 10.9300590573461 103.0814083652258 18.47370267518025 H 0.0 **** 0.06
36793 H 9.291248819656275 103.47556417296994 19.046254959055787 H 0.0 **** 0.06
36794 H 9.927972719409809 104.24399202889549 17.571794627902293 H 0.0 **** 0.06
36795 H 10.590885204550787 104.68691696773817 19.163667263216183 H 0.0 **** 0.06
36796 C 71.51334224734471 11.929326243515675 102.67600355905746 C 0.0 **** -0.24
36797 H 72.48211123484657 11.775138382933505 103.15071024553407 H 0.0 **** 0.06
36798 H 71.18967339355382 11.001902929278387 102.2023526031259 H 0.0 **** 0.06
36799 H 71.5982759623451 12.712161235221544 101.92280218310032 H 0.0 **** 0.06
36800 H 70.78332840778796 12.226453390612832 103.42867874955186 H 0.0 **** 0.06
36801 C 26.937194451012914 92.77058939545503 36.73720386748822 C 0.0 **** -0.24
36802 H 27.24300387119365 91.88578196935832 36.17773877967088 H 0.0 **** 0.06
36803 H 25.89616514152263 92.66533162295983 37.041801080663944 H 0.0 **** 0.06
36804 H 27.04449461201233 93.65336570946218 36.106917138617135 H 0.0 **** 0.06
36805 H 27.56596752275783 92.87636305487736 37.62095272282637 H 0.0 **** 0.06
36806 C 5.492163590676787 105.1249855995072 18.569376501948568 C 0.0 **** -0.24
36807 H 5.290120602971875 104.23595265278766 19.166398056449594 H 0.0 **** 0.06
36808 H 4.720911464183908 105.87204635035927 18.758395349553865 H 0.0 **** 0.06
36809 H 5.491343884288861 104.85994478967578 17.511905735262758 H 0.0 **** 0.06
36810 H 6.466952971791571 105.53127957923802 18.840639487322818 H 0.0 **** 0.06
36811 C 0.37415865964146633 49.51676459969278 69.8013341333426 C 0.0 **** -0.24
36812 H -0.43342810973774704 49.91647788757277 69.18866573273806 H 0.0 **** 0.06
36813 H 1.3281374083167918 49.90675542781159 69.4443516722863 H 0.0 **** 0.06
36814 H 0.37768556510997087 48.428501200024925 69.73279885988359 H 0.0 **** 0.06
36815 H 0.22519934849159995 49.81504237155838 70.83951631491834 H 0.0 **** 0.06
36816 C 93.21998366551597 82.57666667766658 76.25744514702696 C 0.0 **** -0.24
36817 H 92.5571804867326 82.62300090335103 75.3924856899443 H 0.0 **** 0.06
36818 H 92.62841332725124 82.4121668931431 77.158545088333 H 0.0 **** 0.06
36819 H 93.76575454672813 83.51579133173547 76.34688073047626 H 0.0 **** 0.06
36820 H 93.92641715818719 81.75628627032461 76.13088917397714 H 0.0 **** 0.06
36821 C 14.686023617983125 0.19765820090712172 0.605310365931814 C 0.0 **** -0.24
36822 H 15.04823700958184 1.1550247639925093 0.23058989282526454 H 0.0 **** 0.06
36823 H 13.92265890860726 0.370013356798812 1.3639701863478848 H 0.0 **** 0.06
36824 H 15.515243737612266 -0.35828576068567486 1.041861592126338 H 0.0 **** 0.06
36825 H 14.257945213589338 -0.37524909235848947 -0.21822038198965288 H 0.0 **** 0.06
36826 C 103.44705900592297 33.737793522048065 7.100867021884909 C 0.0 **** -0.24
36827 H 103.51070254338212 33.08603326667628 7.9712799706192925 H 0.0 **** 0.06
36828 H 104.29085618313928 33.542580655122066 6.438710704760595 H 0.0 **** 0.06
36829 H 103.4722415990041 34.778864010963986 7.4240911233222135 H 0.0 **** 0.06
36830 H 102.51480222513374 33.54538896486602 6.569372420194242 H 0.0 **** 0.06
36831 C 22.921414896724514 103.1130370262903 63.07004160665201 C 0.0 **** -0.24
36832 H 23.32937921508801 102.12042264568865 62.881027101009465 H 0.0 **** 0.06
36833 H 23.525497652931108 103.61688441630187 63.824117535556525 H 0.0 **** 0.06
36834 H 21.89535295449221 103.0212038767161 63.428132842768264 H 0.0 **** 0.06
36835 H 22.93343099250734 103.69267955387201 62.14718579631983 H 0.0 **** 0.06
36836 C 96.37784553454424 64.46861570155839 83.45847630412507 C 0.0 **** -0.24
36837 H 96.72035911966869 65.48421910452154 83.65421549812217 H 0.0 **** 0.06
36838 H 95.99813367108479 64.02904403860067 84.38188220205211 H 0.0 **** 0.06
36839 H 97.20936552887416 63.86983851299175 83.08627192094642 H 0.0 **** 0.06
36840 H 95.58368714812843 64.49007680186203 82.71210468684603 H 0.0 **** 0.06
36841 C 35.954336971139185 3.9787610564336173 54.83163263191669 C 0.0 **** -0.24
36842 H 35.55180719691947 4.586963356951568 54.02157803438129 H 0.0 **** 0.06
36843 H 35.132754359169724 3.534057197887747 55.393658629170346 H 0.0 **** 0.06
36844 H 36.5512058770056 4.605638986028925 55.49402169627405 H 0.0 **** 0.06
36845 H 36.58001683519825 3.189185107560049 54.41588845619074 H 0.0 **** 0.06
36846 C 21.940542109503518 7.368227164253909 67.21279592229226 C 0.0 **** -0.24
36847 H 21.098064057159398 7.39902578675904 66.52121011766016 H 0.0 **** 0.06
36848 H 22.838070688871742 7.727017775723539 66.70909616155511 H 0.0 **** 0.06
36849 H 22.09735062965017 6.344126835418052 67.54990905124507 H 0.0 **** 0.06
36850 H 21.72661852157186 8.004434800854995 68.07265947610632 H 0.0 **** 0.06
36851 C 93.65994553253095 34.192530385396935 76.56502848552009 C 0.0 **** -0.24
36852 H 93.28950845402782 33.406337377845546 77.22159573629511 H 0.0 **** 0.06
36853 H 92.8929855166857 34.44447004113658 75.83187672609225 H 0.0 **** 0.06
36854 H 94.55498033713056 33.84394138602852 76.05077750871905 H 0.0 **** 0.06
36855 H 93.90213753335378 35.07596072277727 77.15665474272225 H 0.0 **** 0.06
36856 C 87.51854338392097 29.666808322687757 22.943153718921963 C 0.0 **** -0.24
36857 H 88.24286781365764 29.963136585608936 22.184262817180155 H 0.0 **** 0.06
36858 H 87.68848220122193 28.625891077439462 23.21888875242894 H 0.0 **** 0.06
36859 H 86.51010722724676 29.778122445810084 22.54593168287755 H 0.0 **** 0.06
36860 H 87.63541961270474 30.30011370880834 23.82223102790354 H 0.0 **** 0.06
36861 C 73.8610386981967 87.29948585956433 55.12849019404635 C 0.0 **** -0.24
36862 H 74.78938235039405 87.07823270505686 55.654564129811696 H 0.0 **** 0.06
36863 H 73.64488574062172 88.36474673470265 55.20435082413988 H 0.0 **** 0.06
36864 H 73.04677011048042 86.73000947942029 55.57492827442274 H 0.0 **** 0.06
36865 H 73.96479682372066 87.02354021026018 54.07903273177173 H 0.0 **** 0.06
36866 C 59.50845814443578 32.62138627890417 105.87075660935696 C 0.0 **** -0.24
36867 H 59.09028881410901 33.61612103553068 105.71302920268961 H 0.0 **** 0.06
36868 H 58.89821270374502 32.0826158583757 106.59591566982171 H 0.0 **** 0.06
36869 H 60.526953486001005 32.7115343263805 106.24773041671621 H 0.0 **** 0.06
36870 H 59.516520827260216 32.07782150323763 104.926601440803 H 0.0 **** 0.06
36871 C 24.886809813388084 13.713410119127602 94.31669266327924 C 0.0 **** -0.24
36872 H 25.262640150962028 12.882563311125338 94.91447513452022 H 0.0 **** 0.06
36873 H 23.806589624909492 13.792322553495069 94.44388516945628 H 0.0 **** 0.06
36874 H 25.117465714807054 13.538080697122666 93.26654881900618 H 0.0 **** 0.06
36875 H 25.360275942838825 14.638504968415589 94.6445493725264 H 0.0 **** 0.06
36876 C 87.17641490065407 28.779158510401714 0.04326866834716725 C 0.0 **** -0.24
36877 H 87.86548915112971 29.36929002693762 -0.5604706410553035 H 0.0 **** 0.06
36878 H 86.69286690912449 29.423371766861806 0.7774718536322638 H 0.0 **** 0.06
36879 H 87.72820082473584 27.99245925364312 0.557933886884399 H 0.0 **** 0.06
36880 H 86.42012326004999 28.330869687868642 -0.6011223594988166 H 0.0 **** 0.06
36881 C 74.95262021054207 76.01476110944901 66.27989460800285 C 0.0 **** -0.24
36882 H 73.94245072173497 75.61247612153579 66.19619781053689 H 0.0 **** 0.06
36883 H 75.30107818626934 76.32942365129685 65.29561096798551 H 0.0 **** 0.06
36884 H 75.61784853465956 75.24496987119207 66.67150212861065 H 0.0 **** 0.06
36885 H 74.94863503008015 76.86981846631068 66.95578937503814 H 0.0 **** 0.06
36886 C 62.76366314575756 3.150669477733558 41.12994788923848 C 0.0 **** -0.24
36887 H 62.639134524543636 3.170862539076225 40.04672832504599 H 0.0 **** 0.06
36888 H 61.794637731495115 3.2943749501220054 41.60909217168381 H 0.0 **** 0.06
36889 H 63.44154128697117 3.948425006367117 41.43278782779967 H 0.0 **** 0.06
36890 H 63.177775212183676 2.187837292958079 41.42914194888998 H 0.0 **** 0.06
36891 C 76.94740534821815 36.24972037364566 89.87575937838982 C 0.0 **** -0.24
36892 H 76.13371741850372 35.526809992718256 89.80990891239018 H 0.0 **** 0.06
36893 H 76.53848242967953 37.23961836742316 90.07924091350999 H 0.0 **** 0.06
36894 H 77.49374183018918 36.268410446640246 88.93247953642192 H 0.0 **** 0.06
36895 H 77.62387323126313 35.962053276086465 90.68147869544087 H 0.0 **** 0.06
36896 C 98.29171620493707 84.82180567091733 49.23094333959662 C 0.0 **** -0.24
36897 H 97.41613603763085 85.01198352842665 48.60998402205453 H 0.0 **** 0.06
36898 H 99.16303312300835 85.30313446081732 48.78768484068817 H 0.0 **** 0.06
36899 H 98.4629116160612 83.74704129829601 49.29610780905611 H 0.0 **** 0.06
36900 H 98.12248848857803 85.2243602811735 50.22951054327132 H 0.0 **** 0.06
36901 C 1.1529264123361713 34.03816641081875 103.86731121431228 C 0.0 **** -0.24
36902 H 0.3618163480442149 34.67080890957493 103.46356985144985 H 0.0 **** 0.06
36903 H 2.047778453896271 34.13924289939831 103.25362395618946 H 0.0 **** 0.06
36904 H 0.8239749704465851 32.999348600527526 103.86239392824085 H 0.0 **** 0.06
36905 H 1.3753299092255702 34.34349849869574 104.88938786136946 H 0.0 **** 0.06
36906 C 70.70045709345128 8.252787308969005 10.609487389091754 C 0.0 **** -0.24
36907 H 70.61262373647558 8.600236596413083 9.58069832260901 H 0.0 **** 0.06
36908 H 69.80433137089848 8.531612405065175 11.16422064153835 H 0.0 **** 0.06
36909 H 71.57365838989554 8.71017769323393 11.074002415743223 H 0.0 **** 0.06
36910 H 70.80943615180031 7.168423883148137 10.617867036719815 H 0.0 **** 0.06
36911 C 46.49404398805797 60.2174570854049 58.317519314352126 C 0.0 **** -0.24
36912 H 46.68913047706582 61.087410200771956 57.689764915491594 H 0.0 **** 0.06
36913 H 47.0387327421044 59.35802918125478 57.927149583084315 H 0.0 **** 0.06
36914 H 45.42527166209362 60.002184823599634 58.316379339325124 H 0.0 **** 0.06
36915 H 46.82132328875167 60.42448912047843 59.33587320821857 H 0.0 **** 0.06
36916 C 43.7299637971636 61.190037540366205 42.81288642892716 C 0.0 **** -0.24
36917 H 44.36483117556009 61.13902894488385 41.9285690522739 H 0.0 **** 0.06
36918 H 43.46460649836659 62.22979218946719 43.00933635319947 H 0.0 **** 0.06
36919 H 44.266784492303444 60.783849596594195 43.670366235256466 H 0.0 **** 0.06
36920 H 42.82317842277085 60.60983556552529 42.64376625713942 H 0.0 **** 0.06
36921 C 68.36267517750657 6.675196459756421 89.5756379736276 C 0.0 **** -0.24
36922 H 68.18741983794749 5.7389441507857555 89.04543621889694 H 0.0 **** 0.06
36923 H 69.40934197065505 6.962634725713201 89.4670255491733 H 0.0 **** 0.06
36924 H 68.12877609829135 6.543891847616408 90.63198972102714 H 0.0 **** 0.06
36925 H 67.7263166689067 7.454509982335026 89.15636242222784 H 0.0 **** 0.06
36926 C 49.0439215301607 5.869010368379492 78.25490988543055 C 0.0 **** -0.24
36927 H 48.82504424194033 6.520017175992521 79.10186656682981 H 0.0 **** 0.06
36928 H 49.952193865846226 5.300541793913283 78.45873241363012 H 0.0 **** 0.06
36929 H 49.186510117058816 6.473864125943393 77.35936025638392 H 0.0 **** 0.06
36930 H 48.21135880965278 5.182217739401267 78.10023299900632 H 0.0 **** 0.06
36931 C 59.10389043303887 64.20400546699243 76.911276346769 C 0.0 **** -0.24
36932 H 60.17688695987524 64.31208799889339 76.75110970703079 H 0.0 **** 0.06
36933 H 58.92840470643944 63.54229517863544 77.75996945954867 H 0.0 **** 0.06
36934 H 58.64405687757396 63.779752272361804 76.0184504638701 H 0.0 **** 0.06
36935 H 58.667155283992244 65.18083660044269 77.11567788728641 H 0.0 **** 0.06
36936 C 104.94971995946216 13.93742291891806 84.95357592693416 C 0.0 **** -0.24
36937 H 105.19841912659055 14.43039974846181 85.89357076409449 H 0.0 **** 0.06
36938 H 104.94243481068594 14.67111861154956 84.1481827219249 H 0.0 **** 0.06
36939 H 103.9645485820044 13.477505960118435 85.03489924963448 H 0.0 **** 0.06
36940 H 105.69285800528708 13.168085197410278 84.74028717296936 H 0.0 **** 0.06
36941 C 27.694164343266394 8.593803652321228 66.55240261800094 C 0.0 **** -0.24
36942 H 26.97261628071928 8.1343745097641 67.22741515785651 H 0.0 **** 0.06
36943 H 27.403810458311725 8.39533822504876 65.52007909214882 H 0.0 **** 0.06
36944 H 28.68344880760435 8.17475861602425 66.73812888025162 H 0.0 **** 0.06
36945 H 27.717394091882596 9.670062828798663 66.72358461037703 H 0.0 **** 0.06
36946 C 51.74438875230761 64.89504836045035 23.190655145152192 C 0.0 **** -0.24
36947 H 51.38999530520549 65.14911682242081 24.189542626416397 H 0.0 **** 0.06
36948 H 50.89236788158714 64.6584729407017 22.552962244964903 H 0.0 **** 0.06
36949 H 52.40500550497169 64.02926537673659 23.24946076268759 H 0.0 **** 0.06
36950 H 52.289281895718055 65.74057634742962 22.771901577620355 H 0.0 **** 0.06
36951 C 34.69738274522746 42.38454444138821 49.91318048485576 C 0.0 **** -0.24
36952 H 33.739819409141234 42.14007071007754 49.455563103694374 H 0.0 **** 0.06
36953 H 34.716532949287654 43.443234987130154 50.17332725226274 H 0.0 **** 0.06
36954 H 35.50228365000095 42.16896681410005 49.209799668683445 H 0.0 **** 0.06
36955 H 34.83381981842845 41.78641661106413 50.81446110566728 H 0.0 **** 0.06
36956 C 80.41534979389384 94.77422315749239 101.14838751766234 C 0.0 **** -0.24
36957 H 80.90771099386376 94.44584244364964 100.23328083368295 H 0.0 **** 0.06
36958 H 81.16730319609546 95.0050058771101 101.90297092853808 H 0.0 **** 0.06
36959 H 79.7636500013854 93.9815839207169 101.51481362090271 H 0.0 **** 0.06
36960 H 79.82218482716779 95.66555515079502 100.94177834851001 H 0.0 **** 0.06
36961 C 78.82650616930664 58.29709073139301 51.79560882617599 C 0.0 **** -0.24
36962 H 79.35923456219484 57.99747182815051 52.697733344819 H 0.0 **** 0.06
36963 H 79.26307908229381 57.79305492508979 50.93217741621844 H 0.0 **** 0.06
36964 H 78.90944013018986 59.37584940379037 51.666413800339505 H 0.0 **** 0.06
36965 H 77.77649253876353 58.021198550618095 51.88544491953596 H 0.0 **** 0.06
36966 C 25.126233005338463 56.015608944365496 60.784022692493295 C 0.0 **** -0.24
36967 H 24.389750774266417 55.400259098403396 60.268201838900495 H 0.0 **** 0.06
36968 H 24.797314659311837 57.054831074354595 60.782682303255626 H 0.0 **** 0.06
36969 H 26.08646818542303 55.93725677463564 60.27371193720836 H 0.0 **** 0.06
36970 H 25.232662341381797 55.66841514842159 61.81227024081153 H 0.0 **** 0.06
36971 C 76.58575408026724 89.53131788293162 106.65969752734037 C 0.0 **** -0.24
36972 H 77.0885306344461 90.33381551790964 106.12060481017761 H 0.0 **** 0.06
36973 H 77.29012729498919 89.05672866998937 107.3442121327885 H 0.0 **** 0.06
36974 H 76.21611978403934 88.79272111282222 105.94911399348112 H 0.0 **** 0.06
36975 H 75.74968475497701 89.94159786951349 107.22572058848351 H 0.0 **** 0.06
36976 C 23.62882987879924 1.5529372399752503 50.630898573036546 C 0.0 **** -0.24
36977 H 23.190114703769982 0.5601606844291638 50.73252252245777 H 0.0 **** 0.06
36978 H 24.570039511910064 1.480186615853853 50.08552117744367 H 0.0 **** 0.06
36979 H 23.812886458766812 1.9710990912367805 51.62033554993516 H 0.0 **** 0.06
36980 H 22.940512078867915 2.1986114085920008 50.08507790257312 H 0.0 **** 0.06
36981 C 42.0893278367827 40.22058410257978 70.7718854843812 C 0.0 **** -0.24
36982 H 42.851924845583284 39.93384579418077 71.49644651168572 H 0.0 **** 0.06
36983 H 41.193006862970854 39.62129599351127 70.9326623315628 H 0.0 **** 0.06
36984 H 42.465319744137 40.05128019114086 69.76337770886298 H 0.0 **** 0.06
36985 H 41.84883685730542 41.27648363096654 70.89718112841486 H 0.0 **** 0.06
36986 C 11.168558068346925 100.95813332693216 3.0023106821931265 C 0.0 **** -0.24
36987 H 10.708368229697333 100.24384108258792 3.6844628450546537 H 0.0 **** 0.06
36988 H 11.382051582913256 101.88504795016291 3.5355175387001623 H 0.0 **** 0.06
36989 H 10.485963200118533 101.16283088771623 2.1771640955607268 H 0.0 **** 0.06
36990 H 12.096542272163997 100.54129037293971 2.611066549945548 H 0.0 **** 0.06
36991 C 85.88983782605028 26.07751733603009 67.32621326263401 C 0.0 **** -0.24
36992 H 86.61431195026285 25.26332305143014 67.32311440710102 H 0.0 **** 0.06
36993 H 85.91075781604711 26.577771700058904 68.29397128672647 H 0.0 **** 0.06
36994 H 84.89246382183944 25.677290955933216 67.1450541291294 H 0.0 **** 0.06
36995 H 86.14351146134037 26.791353827843746 66.54256292401637 H 0.0 **** 0.06
36996 C 21.859609996324338 105.7995308455122 33.739117072115064 C 0.0 **** -0.24
36997 H 21.52209565266692 106.83589515225219 33.71329415073437 H 0.0 **** 0.06
36998 H 21.185542215742018 105.18355271158791 33.142747777844164 H 0.0 **** 0.06
36999 H 21.862980578937382 105.44417676358538 34.76860273593388 H 0.0 **** 0.06
37000 H 22.867500134466184 105.7365547019892 33.328264050512175 H 0.0 **** 0.06
37001 C 31.286759264513712 49.39957184307732 50.081807174175964 C 0.0 **** -0.24
37002 H 32.20371518111208 49.8342164499192 49.68226033335275 H 0.0 **** 0.06
37003 H 30.882980205496708 48.682970108743014 49.36555707771528 H 0.0 **** 0.06
37004 H 30.557261204384176 50.189650260035826 50.25670523287468 H 0.0 **** 0.06
37005 H 31.504955650426922 48.890941386124425 51.021214505877445 H 0.0 **** 0.06
37006 C 95.61134128118226 31.852080931010676 20.971062801293044 C 0.0 **** -0.24
37007 H 95.1475483846013 32.284527651231826 20.08478820094058 H 0.0 **** 0.06
37008 H 95.03032632961555 32.12234890929656 21.85351427893613 H 0.0 **** 0.06
37009 H 96.62686665529559 32.235429078391846 21.07384972850204 H 0.0 **** 0.06
37010 H 95.64070581459758 30.76676699582837 20.87275660234468 H 0.0 **** 0.06
37011 C 93.38043758996115 88.42118868606057 73.83860179714517 C 0.0 **** -0.24
37012 H 92.57584323924426 87.69936185510052 73.69660994670551 H 0.0 **** 0.06
37013 H 94.0013791448472 88.45319571333609 72.94370973009018 H 0.0 **** 0.06
37014 H 93.98860607748774 88.12158289697894 74.69259957698944 H 0.0 **** 0.06
37015 H 92.95620281078074 89.40775262358795 74.02234375714113 H 0.0 **** 0.06
37016 C 27.194406664098885 40.29462710523344 94.50349379407523 C 0.0 **** -0.24
37017 H 26.674273307994415 39.49763131801285 93.9719096291224 H 0.0 **** 0.06
37018 H 28.1545879660279 39.9237780142675 94.863604297904 H 0.0 **** 0.06
37019 H 26.590341673888 40.6210528620207 95.3501793498795 H 0.0 **** 0.06
37020 H 27.35923676164506 41.13407337607338 93.82895050650711 H 0.0 **** 0.06
37021 C 34.65113482925855 92.36206072300212 106.40625803614299 C 0.0 **** -0.24
37022 H 34.12800102698861 92.76616837852617 107.2724027656184 H 0.0 **** 0.06
37023 H 34.31016510913551 91.3439242935973 106.21758481389301 H 0.0 **** 0.06
37024 H 35.72463214789448 92.3558992587964 106.60086109859333 H 0.0 **** 0.06
37025 H 34.443744027888386 92.98301149503686 105.53482364604591 H 0.0 **** 0.06
37026 C 48.6295674578141 96.85108211253622 22.239203001027136 C 0.0 **** -0.24
37027 H 49.18960228483913 97.4834332203567 22.927794139560177 H 0.0 **** 0.06
37028 H 49.07593468687048 95.85616107641091 22.214561361638175 H 0.0 **** 0.06
37029 H 48.658867258152235 97.28755655990425 21.24020783404424 H 0.0 **** 0.06
37030 H 47.59392896446998 96.77753338950151 22.572881377235575 H 0.0 **** 0.06
37031 C 46.15944694729666 101.10357047528548 104.76565490730292 C 0.0 **** -0.24
37032 H 47.099397615621854 100.64142068781511 105.0674015296263 H 0.0 **** 0.06
37033 H 45.34927558025812 100.71437569288523 105.38148153725052 H 0.0 **** 0.06
37034 H 45.961988077527856 100.8739921066252 103.7180898639408 H 0.0 **** 0.06
37035 H 46.22781105005057 102.18364584575447 104.89474495934758 H 0.0 **** 0.06
37036 C 64.76575924310654 90.36562520296451 79.77577253528133 C 0.0 **** -0.24
37037 H 65.60956020876338 89.69236962453155 79.92383847337595 H 0.0 **** 0.06
37038 H 65.11475478248983 91.39837341940594 79.81180049848359 H 0.0 **** 0.06
37039 H 64.02859301999607 90.2031116470957 80.56205175347412 H 0.0 **** 0.06
37040 H 64.31094364132372 90.16952605031983 78.8046496742113 H 0.0 **** 0.06
37041 C 89.67618874855386 35.08031805160114 25.577940540288267 C 0.0 **** -0.24
37042 H 89.37495577703183 36.041642955647525 25.16253495186885 H 0.0 **** 0.06
37043 H 88.97818985964706 34.30822664159983 25.251555501353664 H 0.0 **** 0.06
37044 H 89.67216740507888 35.137577980759445 26.666854622861962 H 0.0 **** 0.06
37045 H 90.68030302419675 34.83384689517807 25.231325126109226 H 0.0 **** 0.06
37046 C 94.95882054443092 17.786859116222587 14.947512140028294 C 0.0 **** -0.24
37047 H 94.62982139446913 17.775065808929924 13.908599647647861 H 0.0 **** 0.06
37048 H 96.04855753002292 17.80573700342275 14.982834685576535 H 0.0 **** 0.06
37049 H 94.59348504278873 16.89467793113269 15.454718555229931 H 0.0 **** 0.06
37050 H 94.5642663052246 18.67422419457968 15.443528192428317 H 0.0 **** 0.06
37051 C 73.32139617149733 34.22446194764004 80.32249885417184 C 0.0 **** -0.24
37052 H 72.33213105610173 34.43538086028521 80.730484784408 H 0.0 **** 0.06
37053 H 73.63736276123814 35.05395682588896 79.69096816997055 H 0.0 **** 0.06
37054 H 73.28150305683721 33.30986961600553 79.72974496375095 H 0.0 **** 0.06
37055 H 74.03122547741543 34.09716538513247 81.13951820826705 H 0.0 **** 0.06
37056 C 28.43585493009672 26.696743764441084 58.857674242720066 C 0.0 **** -0.24
37057 H 28.5987792532635 25.960134673262537 59.64538706428769 H 0.0 **** 0.06
37058 H 28.983110389042928 27.60935712944702 59.094868339252685 H 0.0 **** 0.06
37059 H 27.37161293643369 26.91955860613 58.78489919723134 H 0.0 **** 0.06
37060 H 28.789096513814698 26.296693084025403 57.90815201228571 H 0.0 **** 0.06
37061 C 105.99955416741535 18.937405870435857 66.87703602480883 C 0.0 **** -0.24
37062 H 106.22331707905893 18.013086330103523 66.34375440380202 H 0.0 **** 0.06
37063 H 106.59594085513962 18.98429720849725 67.7879184565494 H 0.0 **** 0.06
37064 H 104.94001286387251 18.960788795080063 67.1334462622563 H 0.0 **** 0.06
37065 H 106.23810529110466 19.790500990638343 66.2418456702807 H 0.0 **** 0.06
37066 C 57.426423842179425 33.339355762173085 17.705380870585657 C 0.0 **** -0.24
37067 H 58.11025886091607 34.157927507906834 17.479447914462867 H 0.0 **** 0.06
37068 H 56.46778166612195 33.523070697732976 17.21893995289534 H 0.0 **** 0.06
37069 H 57.28001709529766 33.27540170377341 18.783506855773467 H 0.0 **** 0.06
37070 H 57.84620686257367 32.40267369197423 17.33852037136502 H 0.0 **** 0.06
37071 C 34.701515023855734 16.97257769481835 106.1977079475171 C 0.0 **** -0.24
37072 H 35.0745916990725 16.027322816609693 105.80185977444071 H 0.0 **** 0.06
37073 H 35.43481894314661 17.757452212358277 106.01343357786442 H 0.0 **** 0.06
37074 H 34.532698582755415 16.87559341394302 107.26950676222808 H 0.0 **** 0.06
37075 H 33.76393816841241 17.227560881047 105.70372320942786 H 0.0 **** 0.06
37076 C 69.60147509754543 28.216281721891136 72.05777157816482 C 0.0 **** -0.24
37077 H 68.9446810195686 28.17856461602716 71.18741603677589 H 0.0 **** 0.06
37078 H 70.35022538059982 28.99572849435191 71.914006201875 H 0.0 **** 0.06
37079 H 70.09596908095641 27.253112129130102 72.18091259537997 H 0.0 **** 0.06
37080 H 69.01164746970251 28.438759197356518 72.94751979704424 H 0.0 **** 0.06
37081 C 22.663388909792303 94.93571070698628 57.564020235467304 C 0.0 **** -0.24
37082 H 23.663360606760182 94.63307021305063 57.25301211459518 H 0.0 **** 0.06
37083 H 21.97937382863742 94.85064203309499 56.719218229649314 H 0.0 **** 0.06
37084 H 22.687657531044074 95.96865745867863 57.90976248564853 H 0.0 **** 0.06
37085 H 22.323336599956306 94.28875925888221 58.372662280364715 H 0.0 **** 0.06
37086 C 42.89726760788662 78.96785583390943 61.43053200558265 C 0.0 **** -0.24
37087 H 43.3293138750071 79.1621102318905 60.44940412965289 H 0.0 **** 0.06
37088 H 41.843084483502025 79.24603920260273 61.42455793499204 H 0.0 **** 0.06
37089 H 43.423848832762474 79.5551399980344 62.18259730672341 H 0.0 **** 0.06
37090 H 42.99282324027496 77.90813390310979 61.6655686509624 H 0.0 **** 0.06
37091 C 63.48744852452592 51.9250147831186 75.60015142542755 C 0.0 **** -0.24
37092 H 64.25061850877802 51.226505485335 75.9426394136795 H 0.0 **** 0.06
37093 H 63.71461246229376 52.923792026436274 75.97516389022596 H 0.0 **** 0.06
37094 H 62.51272222259021 51.60944323118659 75.97408859101819 H 0.0 **** 0.06
37095 H 63.47074812631564 51.94142416173284 74.51060678857795 H 0.0 **** 0.06
37096 C 6.9963640530928615 28.88798946070358 52.58634020969415 C 0.0 **** -0.24
37097 H 8.0437584647795 29.07972694858148 52.82037527317501 H 0.0 **** 0.06
37098 H 6.363710132056838 29.359309845182395 53.338621293258704 H 0.0 **** 0.06
37099 H 6.816308108577033 27.812411776853082 52.5809304012356 H 0.0 **** 0.06
37100 H 6.763174472260374 29.2998492166692 51.60390755669487 H 0.0 **** 0.06
37101 C 60.12399325239414 49.13803791122322 84.6901306956961 C 0.0 **** -0.24
37102 H 60.22614387399562 50.21510144437531 84.56198995701436 H 0.0 **** 0.06
37103 H 59.26874405964125 48.92794131915804 85.33306925196116 H 0.0 **** 0.06
37104 H 61.02951919799767 48.739215148494054 85.14642427811111 H 0.0 **** 0.06
37105 H 59.96986495129432 48.66972567173093 83.71759747940045 H 0.0 **** 0.06
37106 C 17.55922729643646 47.24995286272141 4.5918942336105015 C 0.0 **** -0.24
37107 H 17.156341453164146 46.26309522859209 4.817951035933255 H 0.0 **** 0.06
37108 H 18.191677289517656 47.58111474209869 5.414796089552519 H 0.0 **** 0.06
37109 H 16.73820763001646 47.955173194440704 4.45765653614834 H 0.0 **** 0.06
37110 H 18.148788349317158 47.199892742806114 3.676112880821462 H 0.0 **** 0.06
37111 C 90.33451002997708 57.187165977803154 98.80314391767696 C 0.0 **** -0.24
37112 H 91.1117147972112 57.95002178168236 98.75573625956677 H 0.0 **** 0.06
37113 H 90.76515514064766 56.25341728293117 99.16624985362535 H 0.0 **** 0.06
37114 H 89.91521304993788 57.03294293913164 97.80924755842665 H 0.0 **** 0.06
37115 H 89.54784274150464 57.513016748355575 99.48355670008822 H 0.0 **** 0.06
37116 C 15.366424057078746 96.07730713773341 80.70579038030083 C 0.0 **** -0.24
37117 H 16.382378595612806 96.38477783001929 80.95347133185531 H 0.0 **** 0.06
37118 H 14.802701600767932 96.9401952124747 80.34834812893509 H 0.0 **** 0.06
37119 H 14.883425139560586 95.66964991102779 81.59298554975709 H 0.0 **** 0.06
37120 H 15.396934842537348 95.31535695966954 79.92718604692912 H 0.0 **** 0.06
37121 C 20.679212927866303 29.493895028147392 85.67652634008624 C 0.0 **** -0.24
37122 H 19.676882210332156 29.509345504132796 85.2487599167323 H 0.0 **** 0.06
37123 H 21.0295832040853 30.516483951884965 85.81720781055043 H 0.0 **** 0.06
37124 H 21.353952250774668 28.968418019267006 84.99966480863833 H 0.0 **** 0.06
37125 H 20.65617440750619 28.981280920030315 86.63765674888916 H 0.0 **** 0.06
37126 C 61.2393298768488 64.77086426894357 67.41741908329107 C 0.0 **** -0.24
37127 H 61.732700964571634 65.63120413961063 67.87022589471258 H 0.0 **** 0.06
37128 H 61.78759832816529 64.46699894447704 66.52541499124521 H 0.0 **** 0.06
37129 H 60.21885812910551 65.03977851676854 67.14287894003252 H 0.0 **** 0.06
37130 H 61.219298877113005 63.946972964856 68.12994594570318 H 0.0 **** 0.06
37131 C 72.44733593152539 22.578137754552646 97.41275432903386 C 0.0 **** -0.24
37132 H 71.80590161842828 22.68879939841195 98.28692920794859 H 0.0 **** 0.06
37133 H 73.07504034569128 23.463084536709243 97.30840364507424 H 0.0 **** 0.06
37134 H 71.82962786374235 22.46275433157805 96.52214211582347 H 0.0 **** 0.06
37135 H 73.077286087865 21.697164048027375 97.53401774346747 H 0.0 **** 0.06
37136 C 22.900222661261893 6.877598322241122 80.7531614582523 C 0.0 **** -0.24
37137 H 23.317453676104464 6.657576723005219 79.77023648257682 H 0.0 **** 0.06
37138 H 22.994556852351423 7.944047063837607 80.95719291943396 H 0.0 **** 0.06
37139 H 23.44139898594989 6.311710676244687 81.51204162421311 H 0.0 **** 0.06
37140 H 21.847608092375964 6.59518563381687 80.77083483955062 H 0.0 **** 0.06
37141 C 50.13878249950068 105.50290030294295 19.918261678153215 C 0.0 **** -0.24
37142 H 49.56944550942313 104.97687195606561 19.15237444984707 H 0.0 **** 0.06
37143 H 49.524281926980734 105.61856201509087 20.81163963204615 H 0.0 **** 0.06
37144 H 50.42764846419266 106.48575829780677 19.544916854176677 H 0.0 **** 0.06
37145 H 51.03287381251397 104.93073163239413 20.164463650066363 H 0.0 **** 0.06
37146 C 62.89202220208881 42.86660633647741 16.539181179270045 C 0.0 **** -0.24
37147 H 63.49520412894938 42.66890388012637 15.652724729380168 H 0.0 **** 0.06
37148 H 62.1378431501177 42.08622955362101 16.646002485425498 H 0.0 **** 0.06
37149 H 62.402056260859126 43.834410265727996 16.437669661766066 H 0.0 **** 0.06
37150 H 63.53336451876268 42.874485957803785 17.420670070632568 H 0.0 **** 0.06
37151 C 14.319565720911953 54.39999296690888 27.55072419334806 C 0.0 **** -0.24
37152 H 15.410094614747777 54.398715755549176 27.57228531988497 H 0.0 **** 0.06
37153 H 13.938366043447274 54.758571351765795 28.50614870202247 H 0.0 **** 0.06
37154 H 13.958640168211673 53.386673759529174 27.37226782690996 H 0.0 **** 0.06
37155 H 13.97356620445629 55.05473912339983 26.750928899890397 H 0.0 **** 0.06
37156 C 89.2708834690148 44.683897821868605 13.140062057041177 C 0.0 **** -0.24
37157 H 88.76846247733853 44.142963613716944 13.943021031132702 H 0.0 **** 0.06
37158 H 90.29981886103609 44.33467236788197 13.055319878234926 H 0.0 **** 0.06
37159 H 89.2652691078249 45.75074821452076 13.363636272441425 H 0.0 **** 0.06
37160 H 88.74728124892349 44.50626920557646 12.199950062431384 H 0.0 **** 0.06
37161 C 8.477704435832248 0.8123687014810912 18.12763406843912 C 0.0 **** -0.24
37162 H 8.85403563558784 -0.10254014200938855 17.669629309137818 H 0.0 **** 0.06
37163 H 7.901791283362149 0.5611944200549743 19.019006203955044 H 0.0 **** 0.06
37164 H 7.838623197684063 1.3377802189078807 17.418365015127137 H 0.0 **** 0.06
37165 H 9.315833833503506 1.4508991446171962 18.40459911580399 H 0.0 **** 0.06
37166 C 94.02078882956197 69.749223637455 30.68441702267367 C 0.0 **** -0.24
37167 H 94.65890598244734 69.03501940407915 31.204200140625375 H 0.0 **** 0.06
37168 H 92.97493870472759 69.5100906930887 30.878320815372618 H 0.0 **** 0.06
37169 H 94.21309524888053 69.69539964410566 29.61228410953383 H 0.0 **** 0.06
37170 H 94.23674318602991 70.75581234292193 31.041682432805814 H 0.0 **** 0.06
37171 C 59.47060807276603 25.784430292253433 69.66678926633875 C 0.0 **** -0.24
37172 H 60.47409956905403 25.454499410819636 69.93523503159358 H 0.0 **** 0.06
37173 H 58.909398452612095 26.013646023467572 70.57271234377598 H 0.0 **** 0.06
37174 H 58.964311943607754 24.99216504893127 69.11503503009018 H 0.0 **** 0.06
37175 H 59.53658845727364 26.675949821159037 69.04415280143988 H 0.0 **** 0.06
37176 C 42.628470625550165 21.411464246313074 61.949467201544095 C 0.0 **** -0.24
37177 H 41.58658706187424 21.191531409890956 61.71569612836899 H 0.0 **** 0.06
37178 H 43.086940219206326 20.541515091892734 62.42027696536843 H 0.0 **** 0.06
37179 H 42.67497252054807 22.260524236527147 62.631674963956854 H 0.0 **** 0.06
37180 H 43.16305770613042 21.65299069866566 61.0305344759164 H 0.0 **** 0.06
37181 C 91.52489267868435 58.59321686543143 20.656838600796394 C 0.0 **** -0.24
37182 H 91.02042181689806 59.195932958016954 21.41135243108066 H 0.0 **** 0.06
37183 H 91.11455448583627 58.82458720078023 19.67397592744037 H 0.0 **** 0.06
37184 H 91.3726341676755 57.53625769997723 20.87537549862312 H 0.0 **** 0.06
37185 H 92.59112097283835 58.8162031288912 20.66718231786887 H 0.0 **** 0.06
37186 C 68.02161047591534 74.37172867943745 23.34454605644035 C 0.0 **** -0.24
37187 H 68.33230755279004 73.39139551747535 23.70689390192655 H 0.0 **** 0.06
37188 H 66.9378943641205 74.38750363401508 23.22364815522505 H 0.0 **** 0.06
37189 H 68.49761750147229 74.57115019253484 22.383509031249957 H 0.0 **** 0.06
37190 H 68.31920649613181 75.13566430433029 24.062339650846866 H 0.0 **** 0.06
37191 C 33.75979242900431 101.07658666392679 41.282257672767116 C 0.0 **** -0.24
37192 H 33.95989216709441 100.46052352440114 42.15929019238436 H 0.0 **** 0.06
37193 H 34.148769360930785 100.57991897695611 40.39374552782324 H 0.0 **** 0.06
37194 H 34.24502088038099 102.04585971428125 41.39962393347615 H 0.0 **** 0.06
37195 H 32.68377786731176 101.21944946426757 41.17768406742985 H 0.0 **** 0.06
37196 C 42.12022743318671 15.224199180083382 69.96361540919625 C 0.0 **** -0.24
37197 H 41.6685064045067 14.319742891928612 69.55838392029565 H 0.0 **** 0.06
37198 H 42.13599054555871 15.165667740901572 71.05215816218353 H 0.0 **** 0.06
37199 H 41.53760764036677 16.092273069220155 69.65447850017262 H 0.0 **** 0.06
37200 H 43.140516834364405 15.319164395218458 69.58970107121402 H 0.0 **** 0.06
37201 C 40.65110401951011 56.997306539469605 105.52612170193757 C 0.0 **** -0.24
37202 H 39.918232301398135 57.45772778905831 106.18835731250749 H 0.0 **** 0.06
37203 H 41.49734932460419 56.64002008797394 106.11205253085456 H 0.0 **** 0.06
37204 H 40.99631344665411 57.73393746942878 104.80037928905332 H 0.0 **** 0.06
37205 H 40.19163424213837 56.15950241095845 105.00252889200308 H 0.0 **** 0.06
37206 C 33.248987090579334 86.03115675359257 14.998680989177842 C 0.0 **** -0.24
37207 H 33.31565820492443 84.97793827775399 14.726378765739554 H 0.0 **** 0.06
37208 H 32.2362897639415 86.25721816147382 15.33146025458376 H 0.0 **** 0.06
37209 H 33.49442590875648 86.64698129017998 14.133172666779672 H 0.0 **** 0.06
37210 H 33.95243415453919 86.24177570743677 15.805233322541397 H 0.0 **** 0.06
37211 C 97.01016598025328 25.675969713575256 33.661808548937444 C 0.0 **** -0.24
37212 H 96.51057701968485 25.990891541327585 32.74502729197553 H 0.0 **** 0.06
37213 H 96.30953123752673 25.73410557277097 34.494833693158654 H 0.0 **** 0.06
37214 H 97.86050830660209 26.32962999385748 33.85380029977202 H 0.0 **** 0.06
37215 H 97.35881889723511 24.648763044377517 33.550218413097554 H 0.0 **** 0.06
37216 C 75.57403759511266 21.712483627312466 96.05808787563927 C 0.0 **** -0.24
37217 H 75.41500879179847 21.67591314976282 97.13590054795577 H 0.0 **** 0.06
37218 H 75.00028730247254 20.917786400524363 95.57984663040531 H 0.0 **** 0.06
37219 H 76.63387604046335 21.5764108211509 95.84217034078472 H 0.0 **** 0.06
37220 H 75.24659686145793 22.67915539877717 95.67507224683595 H 0.0 **** 0.06
37221 C 21.038732151158854 31.023614971034412 12.838665167073145 C 0.0 **** -0.24
37222 H 21.435549853330258 30.896646821528236 13.845366939351152 H 0.0 **** 0.06
37223 H 21.462446383329706 30.262964312241557 12.182233468786649 H 0.0 **** 0.06
37224 H 21.303106237842343 32.012878107676116 12.465966273164213 H 0.0 **** 0.06
37225 H 19.954099490993457 30.9210122599768 12.86101138880531 H 0.0 **** 0.06
37226 C 86.19403840577436 4.483519748118283 107.05092693765695 C 0.0 **** -0.24
37227 H 86.6709649757555 3.503805405970354 107.07929173909828 H 0.0 **** 0.06
37228 H 86.955671305809 5.259958879734427 107.11940529971453 H 0.0 **** 0.06
37229 H 85.5035327470734 4.575298952015487 107.89026613869798 H 0.0 **** 0.06
37230 H 85.64589103425637 4.59252005768866 106.11607239503269 H 0.0 **** 0.06
37231 C 80.5247557132104 101.2465249692087 24.508711856151393 C 0.0 **** -0.24
37232 H 80.07007994620889 100.99024870363615 23.551603112824296 H 0.0 **** 0.06
37233 H 81.45760104832888 101.78407746300516 24.33532311315699 H 0.0 **** 0.06
37234 H 80.73050345222086 100.33335714648732 25.068306495442016 H 0.0 **** 0.06
37235 H 79.84180213426768 101.87601101054989 25.078103095948705 H 0.0 **** 0.06
37236 C 93.262443023343 71.20362936158119 46.246217184904715 C 0.0 **** -0.24
37237 H 93.17831897432848 71.99718217021423 45.50316346562216 H 0.0 **** 0.06
37238 H 92.45275479594068 71.29678021215786 46.969822457352386 H 0.0 **** 0.06
37239 H 94.22096426155224 71.28605799190984 46.75861084623742 H 0.0 **** 0.06
37240 H 93.19811773200405 70.23512340391959 45.750363204380754 H 0.0 **** 0.06
37241 C 74.69396718542777 43.09263899513513 55.524097057085356 C 0.0 **** -0.24
37242 H 75.56789576819693 42.720419230054944 54.988366675850585 H 0.0 **** 0.06
37243 H 73.81869277864877 43.03245559597826 54.87712303303732 H 0.0 **** 0.06
37244 H 74.86136531093155 44.12978168997466 55.81450470464398 H 0.0 **** 0.06
37245 H 74.53004349708709 42.48751268080866 56.41582845241817 H 0.0 **** 0.06
37246 C 103.930767032512 84.02619926904845 37.15334175752551 C 0.0 **** -0.24
37247 H 104.83973806243642 84.33254181451093 37.670780261800104 H 0.0 **** 0.06
37248 H 103.67316757539618 84.76988022744166 36.399250345484965 H 0.0 **** 0.06
37249 H 103.11536388533113 83.93999536954539 37.87264376399385 H 0.0 **** 0.06
37250 H 104.09406332158238 83.06145023736303 36.67344873117208 H 0.0 **** 0.06
37251 C 61.01408203017803 64.36714663793148 73.88709703961524 C 0.0 **** -0.24
37252 H 60.28340852554675 65.07955141004516 73.50360337008561 H 0.0 **** 0.06
37253 H 60.4985679602799 63.4739578261549 74.24208262304063 H 0.0 **** 0.06
37254 H 61.56587240654244 64.81981655370456 74.71036187623085 H 0.0 **** 0.06
37255 H 61.707368517831526 64.09421342660355 73.09070638539171 H 0.0 **** 0.06
37256 C 40.45973433054894 64.65805624010962 84.52347857058247 C 0.0 **** -0.24
37257 H 41.30679606346001 65.0475063205961 83.95998704581221 H 0.0 **** 0.06
37258 H 39.68942962897279 65.42571039342627 84.59949495347139 H 0.0 **** 0.06
37259 H 40.78857000500446 64.37325284080767 85.52402538769758 H 0.0 **** 0.06
37260 H 40.05352348223093 63.78495711695537 84.01263869088834 H 0.0 **** 0.06
37261 C 35.34023731168898 29.356521171012233 66.72190750237468 C 0.0 **** -0.24
37262 H 36.22820068370858 29.112711754495237 66.13922603268739 H 0.0 **** 0.06
37263 H 34.556412853506174 28.629012464128166 66.50985554868839 H 0.0 **** 0.06
37264 H 34.99220724098144 30.353849429905438 66.45256175449137 H 0.0 **** 0.06
37265 H 35.583835516107655 29.330284522627046 67.78378142965178 H 0.0 **** 0.06
37266 C 11.753887094170182 70.7528383779907 55.61137567904673 C 0.0 **** -0.24
37267 H 10.791690564171574 71.1453757086144 55.28269348984562 H 0.0 **** 0.06
37268 H 12.035951789390992 71.22485973678135 56.55227101378262 H 0.0 **** 0.06
37269 H 12.51009098914858 70.96588963840684 54.855195422583925 H 0.0 **** 0.06
37270 H 11.676917156497723 69.67464481554875 55.753653589999026 H 0.0 **** 0.06
37271 C 49.25457774149041 85.52124621268194 0.6052195326106204 C 0.0 **** -0.24
37272 H 49.98325260644779 85.11539390251616 1.3072555507905257 H 0.0 **** 0.06
37273 H 49.375185824420015 86.60391106235475 0.5426468786266234 H 0.0 **** 0.06
37274 H 48.247454924749746 85.28701826311922 0.9509096143563642 H 0.0 **** 0.06
37275 H 49.41386384668547 85.08019466214125 -0.378685527606053 H 0.0 **** 0.06
37276 C 21.489734000004773 59.192995008968545 27.373887327412845 C 0.0 **** -0.24
37277 H 20.649339437580807 59.5331239290125 26.769466144465824 H 0.0 **** 0.06
37278 H 22.1351694951054 58.553302281373675 26.772193941552246 H 0.0 **** 0.06
37279 H 21.117483163692214 58.63142338162674 28.23077666312227 H 0.0 **** 0.06
37280 H 22.057259003772742 60.05527586499737 27.723879902953854 H 0.0 **** 0.06
37281 C 104.07734337688595 90.89900114217502 0.4706702491108672 C 0.0 **** -0.24
37282 H 104.29487858888592 90.02707563877166 1.086846373289461 H 0.0 **** 0.06
37283 H 103.05238551409866 91.22431673746448 0.6507115821663092 H 0.0 **** 0.06
37284 H 104.19633683704012 90.63876009981806 -0.581724127627524 H 0.0 **** 0.06
37285 H 104.76482734731871 91.70464512626904 0.7260409868230226 H 0.0 **** 0.06
37286 C 3.97676929632312 25.283797786841603 48.7287946272979 C 0.0 **** -0.24
37287 H 4.030155760483504 26.2588027219237 49.21478541068561 H 0.0 **** 0.06
37288 H 3.1145191923953943 24.735385575915757 49.11001973106045 H 0.0 **** 0.06
37289 H 4.887358034354577 24.723504890457946 48.93924104514912 H 0.0 **** 0.06
37290 H 3.8741920645537817 25.42022954990108 47.652478702813426 H 0.0 **** 0.06
37291 C 84.48739774757831 103.73516824759551 34.215598854364515 C 0.0 **** -0.24
37292 H 84.05651535811448 104.71627314920663 34.41852077449782 H 0.0 **** 0.06
37293 H 84.6143992956581 103.19382697034814 35.15333440087078 H 0.0 **** 0.06
37294 H 85.45638805531873 103.85685960849986 33.73118403465488 H 0.0 **** 0.06
37295 H 83.82103633441633 103.17541972517307 33.560077902656644 H 0.0 **** 0.06
37296 C 9.80368233653789 45.65722053021605 33.015536254453394 C 0.0 **** -0.24
37297 H 8.731394089907283 45.83056569540426 33.10796509476242 H 0.0 **** 0.06
37298 H 10.050166975874703 44.678049119207735 33.425970624866636 H 0.0 **** 0.06
37299 H 10.34515515954763 46.42820368646655 33.56254612939699 H 0.0 **** 0.06
37300 H 10.087602093926463 45.692025552361144 31.963465479545903 H 0.0 **** 0.06
37301 C 79.32048378926183 100.96620370535436 90.3626273094882 C 0.0 **** -0.24
37302 H 79.89172686095229 100.8469108293429 91.2824920851471 H 0.0 **** 0.06
37303 H 78.32234481150503 101.33445675892402 90.60031195335426 H 0.0 **** 0.06
37304 H 79.24152251447244 100.00383356653013 89.85737042373673 H 0.0 **** 0.06
37305 H 79.82578605309574 101.67897440674935 89.71086718529747 H 0.0 **** 0.06
37306 C 26.68354190474895 84.37005027600463 88.26145063486243 C 0.0 **** -0.24
37307 H 27.166248300790187 85.33350890358264 88.42600374535874 H 0.0 **** 0.06
37308 H 27.418470673300533 83.57227980641989 88.37401502595591 H 0.0 **** 0.06
37309 H 26.265909170582972 84.34102233071349 87.25470587232877 H 0.0 **** 0.06
37310 H 25.885239372084186 84.2349764164749 88.99030711211486 H 0.0 **** 0.06
37311 C 63.2778610182408 30.607086021136354 16.554820359953084 C 0.0 **** -0.24
37312 H 63.53954674157313 30.34940784797186 15.527909307628278 H 0.0 **** 0.06
37313 H 64.12815193920454 30.407765342123867 17.207042196882554 H 0.0 **** 0.06
37314 H 62.42492867400216 30.007190654653755 16.87363176881732 H 0.0 **** 0.06
37315 H 63.017922947741965 31.664681941488453 16.607582192212163 H 0.0 **** 0.06
37316 C 105.56955620486197 64.29895678780468 78.36462222842943 C 0.0 **** -0.24
37317 H 105.48726699544972 63.2195483050927 78.23810538591715 H 0.0 **** 0.06
37318 H 106.18549036495587 64.51548862060491 79.23721077020855 H 0.0 **** 0.06
37319 H 104.57522578597245 64.7237787161396 78.50636180544888 H 0.0 **** 0.06
37320 H 106.02838851274035 64.73434956453269 77.47750402713501 H 0.0 **** 0.06
37321 C 62.70945775056509 54.86971198970019 98.0235325595673 C 0.0 **** -0.24
37322 H 63.26834383905825 54.779792675168494 97.09224068925496 H 0.0 **** 0.06
37323 H 63.39478373317935 54.78707449170497 98.86774704607298 H 0.0 **** 0.06
37324 H 61.96634989034891 54.073579534261626 98.07945730916688 H 0.0 **** 0.06
37325 H 62.20918594497843 55.837848053349774 98.05465184048816 H 0.0 **** 0.06
37326 C 104.99053087460368 56.699602761239525 49.29272412950154 C 0.0 **** -0.24
37327 H 104.47627251534527 55.75137136930182 49.1316951243635 H 0.0 **** 0.06
37328 H 104.84749020658839 57.34241422230308 48.42407373634541 H 0.0 **** 0.06
37329 H 106.05489776736133 56.51410251563715 49.43734255266949 H 0.0 **** 0.06
37330 H 104.58278160691529 57.1874348730864 50.17778799637965 H 0.0 **** 0.06
37331 C 36.774944516048784 85.59663733426787 80.22274262990037 C 0.0 **** -0.24
37332 H 36.43798051674066 86.13908219999644 79.33881413450614 H 0.0 **** 0.06
37333 H 37.29165697712449 84.68778061965354 79.9140706020059 H 0.0 **** 0.06
37334 H 35.91334900513359 85.3342512361601 80.83740307251846 H 0.0 **** 0.06
37335 H 37.45465977504509 86.22503357296718 80.79817380488828 H 0.0 **** 0.06
37336 C 53.54399812141253 33.88917912301869 12.306788798259376 C 0.0 **** -0.24
37337 H 53.337612819275506 33.544461140154 11.293796052704966 H 0.0 **** 0.06
37338 H 53.639140999694945 34.97518662841941 12.307909029515589 H 0.0 **** 0.06
37339 H 54.47242916827912 33.44232352829982 12.659990579507593 H 0.0 **** 0.06
37340 H 52.72562878962353 33.59553212062127 12.963462796110026 H 0.0 **** 0.06
37341 C 100.6164204322842 81.18369154845385 43.901055045405926 C 0.0 **** -0.24
37342 H 100.44314006328725 80.3465604505181 43.22499355757968 H 0.0 **** 0.06
37343 H 99.67667585923127 81.70674842082582 44.07869614543607 H 0.0 **** 0.06
37344 H 101.33561536258841 81.86982344211168 43.45348561527992 H 0.0 **** 0.06
37345 H 101.0100174597961 80.8106754963469 44.84720998291572 H 0.0 **** 0.06
37346 C 89.46025300019053 92.43011785829617 23.777297812916316 C 0.0 **** -0.24
37347 H 90.10019628398248 93.24587504903246 23.439289589954797 H 0.0 **** 0.06
37348 H 88.76357694175138 92.16306118924399 22.98216515122327 H 0.0 **** 0.06
37349 H 88.903287053052 92.74675923805904 24.657998548534053 H 0.0 **** 0.06
37350 H 90.07526906023935 91.56614312761747 24.027208945450397 H 0.0 **** 0.06
37351 C 41.41098432129837 79.12141057300227 11.82720919310944 C 0.0 **** -0.24
37352 H 40.834161203188216 79.82226097549648 11.223236065805423 H 0.0 **** 0.06
37353 H 42.23803869456083 78.72810543159254 11.235984325833925 H 0.0 **** 0.06
37354 H 40.76715867450474 78.300359953429 12.14326637698116 H 0.0 **** 0.06
37355 H 41.80207997020091 79.63464662260833 12.70471165956684 H 0.0 **** 0.06
37356 C 37.21728959236131 62.813203602323455 0.27551143084309615 C 0.0 **** -0.24
37357 H 36.90197116115782 62.56103891584692 -0.7369054597796776 H 0.0 **** 0.06
37358 H 38.301867826877206 62.92252570215021 0.3001381279092925 H 0.0 **** 0.06
37359 H 36.91578918556632 62.01922203041801 0.9585600854024108 H 0.0 **** 0.06
37360 H 36.7494090339714 63.74992096471257 0.5780226907950237 H 0.0 **** 0.06
37361 C 47.392569769554626 21.755273188490605 72.54772358094702 C 0.0 **** -0.24
37362 H 47.24696329948591 22.34238193889496 73.45466889034402 H 0.0 **** 0.06
37363 H 47.53048380557191 22.42527753435843 71.6994844803679 H 0.0 **** 0.06
37364 H 46.51819986923701 21.1272635123662 72.37703723384143 H 0.0 **** 0.06
37365 H 48.27541907916848 21.125205329299945 72.66037500113782 H 0.0 **** 0.06
37366 C 7.397338940523568 7.840807900599799 55.6050018190131 C 0.0 **** -0.24
37367 H 7.73249631995391 7.211072686928588 56.42920131155865 H 0.0 **** 0.06
37368 H 6.70016735397067 8.58940214043156 55.98153223680318 H 0.0 **** 0.06
37369 H 6.899587589942541 7.224752192381629 54.85640737277661 H 0.0 **** 0.06
37370 H 8.255976314087135 8.337803572430914 55.15478651784292 H 0.0 **** 0.06
37371 C 59.75883856211217 55.58149967608222 8.354759402458171 C 0.0 **** -0.24
37372 H 60.47354928018787 56.33594949273343 8.025852463152205 H 0.0 **** 0.06
37373 H 59.34016908363867 55.0746319599357 7.4846664495356094 H 0.0 **** 0.06
37374 H 58.9577175514038 56.0620867970247 8.91632939226156 H 0.0 **** 0.06
37375 H 60.26359916181494 54.85541314394516 8.990939980609483 H 0.0 **** 0.06
37376 C 44.46652081339116 90.80388546696209 44.26414308160495 C 0.0 **** -0.24
37377 H 43.76792013323491 90.21672594449905 44.85985481751183 H 0.0 **** 0.06
37378 H 45.17327719723511 91.30677289980142 44.924538698191036 H 0.0 **** 0.06
37379 H 43.91630869125583 91.54609622839759 43.68677884569347 H 0.0 **** 0.06
37380 H 45.00747200435641 90.14404221267114 43.58578889693463 H 0.0 **** 0.06
37381 C 56.235483818481384 50.374005417087346 84.86248671939234 C 0.0 **** -0.24
37382 H 57.251190270733304 50.146979366352184 84.53864218697493 H 0.0 **** 0.06
37383 H 55.69757059627776 49.44389950063186 85.04771924094052 H 0.0 **** 0.06
37384 H 55.72458413903831 50.94196049592438 84.08502273280669 H 0.0 **** 0.06
37385 H 56.270083571479546 50.962239562630316 85.78026023168627 H 0.0 **** 0.06
37386 C 9.182636318752685 50.17909544059944 78.8511175011914 C 0.0 **** -0.24
37387 H 9.462637774214954 51.213021319262964 79.0536963383316 H 0.0 **** 0.06
37388 H 9.225947333659008 49.60288348681428 79.77585405310853 H 0.0 **** 0.06
37389 H 9.872439167470745 49.75165092325966 78.12288199202078 H 0.0 **** 0.06
37390 H 8.16884229974427 50.14941115761957 78.4515937274945 H 0.0 **** 0.06
37391 C 98.70303160344636 92.5297862917534 33.882468392391246 C 0.0 **** -0.24
37392 H 98.31726746251579 91.99428333488106 33.01436334816614 H 0.0 **** 0.06
37393 H 98.05510467407822 93.37784770272094 34.10382159578498 H 0.0 **** 0.06
37394 H 99.71070874556817 92.88716180500319 33.670086111531475 H 0.0 **** 0.06
37395 H 98.72988619104102 91.85788303827843 34.740412774542904 H 0.0 **** 0.06
37396 C 71.55139271129661 38.66465508633729 47.77135231607257 C 0.0 **** -0.24
37397 H 72.4832667574237 38.99399481369173 47.31159823052804 H 0.0 **** 0.06
37398 H 70.7601637422747 38.65573775614746 47.021381030591755 H 0.0 **** 0.06
37399 H 71.28198662410725 39.348088567091395 48.576488165311964 H 0.0 **** 0.06
37400 H 71.68144621890372 37.65981976212521 48.17477123147588 H 0.0 **** 0.06
37401 C 30.678544838400427 17.42328625217769 14.469491592061132 C 0.0 **** -0.24
37402 H 30.36204123555072 17.643341375162407 15.490114940481405 H 0.0 **** 0.06
37403 H 31.39866129291201 18.17295354032302 14.14230825817917 H 0.0 **** 0.06
37404 H 29.81077192664685 17.438738352278875 13.809967430365205 H 0.0 **** 0.06
37405 H 31.14051288605654 16.436067913962404 14.438407458759912 H 0.0 **** 0.06
37406 C 34.19306996540587 80.32694447225612 23.684193030683844 C 0.0 **** -0.24
37407 H 33.35178834790486 80.00781532733156 24.299529152134824 H 0.0 **** 0.06
37408 H 34.10088066906121 81.39096763223152 23.465088988760527 H 0.0 **** 0.06
37409 H 34.1950313272896 79.76206139118905 22.751425099518116 H 0.0 **** 0.06
37410 H 35.12482054028271 80.14508147646555 24.220013369072916 H 0.0 **** 0.06
37411 C 49.199003569879835 0.32355161439875246 36.505807312291594 C 0.0 **** -0.24
37412 H 49.812510088908596 0.39097955903611137 35.607440501947636 H 0.0 **** 0.06
37413 H 48.18508657817645 0.6558068672921422 36.27899776833479 H 0.0 **** 0.06
37414 H 49.624009319592346 0.9559253051323253 37.28440430207206 H 0.0 **** 0.06
37415 H 49.173371745805326 -0.7103196785221257 36.851108481884765 H 0.0 **** 0.06
37416 C 10.627118639691474 53.65476639359366 106.2315230837358 C 0.0 **** -0.24
37417 H 9.92479795600957 53.47226063359926 107.04458027121323 H 0.0 **** 0.06
37418 H 10.531471603798906 52.86621378782718 105.48433020832441 H 0.0 **** 0.06
37419 H 11.643543037791119 53.66260604191177 106.62442340789127 H 0.0 **** 0.06
37420 H 10.408232170765672 54.618644543676 105.77214162107698 H 0.0 **** 0.06
37421 C 45.058165312030894 70.4698983716699 30.23682257536703 C 0.0 **** -0.24
37422 H 44.798132105070096 69.46469595499488 29.90295492916966 H 0.0 **** 0.06
37423 H 44.42770442704605 71.19665895194413 29.72464503442498 H 0.0 **** 0.06
37424 H 46.10464677403647 70.66940343938404 30.00744524652289 H 0.0 **** 0.06
37425 H 44.90045998765578 70.54651774762081 31.313068947107944 H 0.0 **** 0.06
37426 C 22.327022561719684 62.6287168866173 8.838335639065093 C 0.0 **** -0.24
37427 H 22.395909580292837 63.130514142251116 9.80346091385826 H 0.0 **** 0.06
37428 H 23.265488242406878 62.1145302545992 8.6292064567686 H 0.0 **** 0.06
37429 H 22.133966759464396 63.365568732481904 8.05926537338334 H 0.0 **** 0.06
37430 H 21.513041304800343 61.90448390460668 8.863371416448103 H 0.0 **** 0.06
37431 C 65.47522281175594 0.837067841583405 5.764590002376224 C 0.0 **** -0.24
37432 H 64.91757442108877 1.710023183998885 6.104525248756204 H 0.0 **** 0.06
37433 H 65.09694102831014 -0.053228670172842385 6.268776282266458 H 0.0 **** 0.06
37434 H 66.53161673326377 0.9670715718330598 5.999848637082039 H 0.0 **** 0.06
37435 H 65.35273142723611 0.7257686014632441 4.688043688395027 H 0.0 **** 0.06
37436 C 4.334302562309105 12.989986927871172 90.3257164136349 C 0.0 **** -0.24
37437 H 5.251771220270562 13.257997063251196 89.80151936275692 H 0.0 **** 0.06
37438 H 4.211863260483239 11.906589756050167 90.3131096917781 H 0.0 **** 0.06
37439 H 3.4830347695966433 13.457808054339864 89.83001257244595 H 0.0 **** 0.06
37440 H 4.390124847053214 13.337260044869737 91.35736313501323 H 0.0 **** 0.06
37441 C 12.253703690303126 83.80652417401456 16.275252672685777 C 0.0 **** -0.24
37442 H 11.573833303323568 83.54884482050502 17.086970165143534 H 0.0 **** 0.06
37443 H 13.28416572634751 83.69695142356774 16.615573968504105 H 0.0 **** 0.06
37444 H 12.07901905209755 84.8385461690357 15.9700795833966 H 0.0 **** 0.06
37445 H 12.077549043287604 83.14270966096717 15.428548142014552 H 0.0 **** 0.06
37446 C 100.97989098728806 96.78015600119667 92.57124918137006 C 0.0 **** -0.24
37447 H 100.0902895805205 96.21891202259292 92.2832451928048 H 0.0 **** 0.06
37448 H 101.68517258967773 96.11378086057223 93.06671026756553 H 0.0 **** 0.06
37449 H 100.69740681556927 97.58332934040067 93.25283120043977 H 0.0 **** 0.06
37450 H 101.44384010983813 97.20533722305797 91.68165387139089 H 0.0 **** 0.06
37451 C 23.269810615525667 84.8514694965368 60.38763857451942 C 0.0 **** -0.24
37452 H 22.209467249564863 84.70582436771008 60.591658443153946 H 0.0 **** 0.06
37453 H 23.78889458239834 85.09040013983572 61.316680964198056 H 0.0 **** 0.06
37454 H 23.394617277097897 85.6704143615914 59.68025166106813 H 0.0 **** 0.06
37455 H 23.687080149658822 83.93761390540698 59.9632639067017 H 0.0 **** 0.06
37456 C 97.72790664618009 42.889316507948195 10.123331312195319 C 0.0 **** -0.24
37457 H 97.09262841315346 43.62552330994225 9.630608438540321 H 0.0 **** 0.06
37458 H 98.27394756155627 43.36703931545668 10.936626420125293 H 0.0 **** 0.06
37459 H 98.4348212088543 42.479793820162 9.401492206631872 H 0.0 **** 0.06
37460 H 97.10940207330792 42.08609299093155 10.522890754953096 H 0.0 **** 0.06
37461 C 67.2973426757031 47.597806854732646 33.49734113136695 C 0.0 **** -0.24
37462 H 68.24995464218492 47.7981029342669 33.9878629286237 H 0.0 **** 0.06
37463 H 66.89402656588467 48.52703778261156 33.0953676400294 H 0.0 **** 0.06
37464 H 66.59741166767648 47.17824896009674 34.21948476878492 H 0.0 **** 0.06
37465 H 67.45074046627602 46.88708481250521 32.68445795082987 H 0.0 **** 0.06
37466 C 97.07825020408555 43.23801372191902 18.383237794318006 C 0.0 **** -0.24
37467 H 97.43485151478818 44.051925029492914 19.0150499722008 H 0.0 **** 0.06
37468 H 97.46500074248725 42.29112500782756 18.75994390056519 H 0.0 **** 0.06
37469 H 97.424159209511 43.392866278562096 17.3619942962236 H 0.0 **** 0.06
37470 H 95.98859941055048 43.21753292379807 18.39877444751157 H 0.0 **** 0.06
37471 C 10.870099881547162 42.233451668210364 74.01119432897704 C 0.0 **** -0.24
37472 H 11.459290484658823 43.10880077189378 74.28387559036216 H 0.0 **** 0.06
37473 H 11.503280384319396 41.51831577327988 73.48703045851974 H 0.0 **** 0.06
37474 H 10.048241194726984 42.53589652882201 73.36273146849092 H 0.0 **** 0.06
37475 H 10.469039880671744 41.77135927206419 74.9134593770008 H 0.0 **** 0.06
37476 C 10.640145171616695 56.0483309947719 31.388391648185 C 0.0 **** -0.24
37477 H 11.374935586834425 56.5565466925903 30.76449139374038 H 0.0 **** 0.06
37478 H 10.37210802983735 55.094738072854 30.930871760181596 H 0.0 **** 0.06
37479 H 9.749557003429103 56.670294303909316 31.480787986799733 H 0.0 **** 0.06
37480 H 11.062773915402914 55.870976591413694 32.37643819823463 H 0.0 **** 0.06
37481 C 71.60239867658639 4.679699381549767 105.42234454308414 C 0.0 **** -0.24
37482 H 70.78109893341095 5.390961002999859 105.50818934987544 H 0.0 **** 0.06
37483 H 71.645230917313 4.296320433437074 104.40267464123124 H 0.0 **** 0.06
37484 H 71.44110646301728 3.8548161415777713 106.11577451952985 H 0.0 **** 0.06
37485 H 72.54098238684654 5.179627298397293 105.66252036356542 H 0.0 **** 0.06
37486 C 98.28331180634044 89.85545054556076 2.449637254709586 C 0.0 **** -0.24
37487 H 98.47882145450545 90.61793678537236 3.2033417056535995 H 0.0 **** 0.06
37488 H 97.4193918526534 89.26125179663416 2.7498820474187085 H 0.0 **** 0.06
37489 H 99.15408788273436 89.20801718111373 2.35343068011656 H 0.0 **** 0.06
37490 H 98.08014799342871 90.33574882490514 1.4920821540686404 H 0.0 **** 0.06
37491 C 24.42381553297392 10.6648306777181 10.360220616509736 C 0.0 **** -0.24
37492 H 24.255216053599426 9.682451797302406 9.919019233410552 H 0.0 **** 0.06
37493 H 25.383696671369705 10.671057235722742 10.876966349714877 H 0.0 **** 0.06
37494 H 23.62642438317738 10.884715898248004 11.07127309588634 H 0.0 **** 0.06
37495 H 24.427948286344176 11.420123168296868 9.574692860611705 H 0.0 **** 0.06
37496 C 59.556778801341565 91.97366851574367 33.52756811921293 C 0.0 **** -0.24
37497 H 59.5814509475515 92.52234428389232 34.46905518315896 H 0.0 **** 0.06
37498 H 58.572628478628076 92.08009520849858 33.071447301387366 H 0.0 **** 0.06
37499 H 59.75713986521508 90.91895200280486 33.71748455721527 H 0.0 **** 0.06
37500 H 60.31489130337744 92.37244336449358 32.8543558871398 H 0.0 **** 0.06
@<TRIPOS>BOND
1 1 2 28
2 1 3 28
3 1 4 28
4 1 5 28
5 6 7 28
6 6 8 28
7 6 9 28
8 6 10 28
9 11 12 28
10 11 13 28
11 11 14 28
12 11 15 28
13 16 17 28
14 16 18 28
15 16 19 28
16 16 20 28
17 21 22 28
18 21 23 28
19 21 24 28
20 21 25 28
21 26 27 28
22 26 28 28
23 26 29 28
24 26 30 28
25 31 32 28
26 31 33 28
27 31 34 28
28 31 35 28
29 36 37 28
30 36 38 28
31 36 39 28
32 36 40 28
33 41 42 28
34 41 43 28
35 41 44 28
36 41 45 28
37 46 47 28
38 46 48 28
39 46 49 28
40 46 50 28
41 51 52 28
42 51 53 28
43 51 54 28
44 51 55 28
45 56 57 28
46 56 58 28
47 56 59 28
48 56 60 28
49 61 62 28
50 61 63 28
51 61 64 28
52 61 65 28
53 66 67 28
54 66 68 28
55 66 69 28
56 66 70 28
57 71 72 28
58 71 73 28
59 71 74 28
60 71 75 28
61 76 77 28
62 76 78 28
63 76 79 28
64 76 80 28
65 81 82 28
66 81 83 28
67 81 84 28
68 81 85 28
69 86 87 28
70 86 88 28
71 86 89 28
72 86 90 28
73 91 92 28
74 91 93 28
75 91 94 28
76 91 95 28
77 96 97 28
78 96 98 28
79 96 99 28
80 96 100 28
81 101 102 28
82 101 103 28
83 101 104 28
84 101 105 28
85 106 107 28
86 106 108 28
87 106 109 28
88 106 110 28
89 111 112 28
90 111 113 28
91 111 114 28
92 111 115 28
93 116 117 28
94 116 118 28
95 116 119 28
96 116 120 28
97 121 122 28
98 121 123 28
99 121 124 28
100 121 125 28
101 126 127 28
102 126 128 28
103 126 129 28
104 126 130 28
105 131 132 28
106 131 133 28
107 131 134 28
108 131 135 28
109 136 137 28
110 136 138 28
111 136 139 28
112 136 140 28
113 141 142 28
114 141 143 28
115 141 144 28
116 141 145 28
117 146 147 28
118 146 148 28
119 146 149 28
120 146 150 28
121 151 152 28
122 151 153 28
123 151 154 28
124 151 155 28
125 156 157 28
126 156 158 28
127 156 159 28
128 156 160 28
129 161 162 28
130 161 163 28
131 161 164 28
132 161 165 28
133 166 167 28
134 166 168 28
135 166 169 28
136 166 170 28
137 171 172 28
138 171 173 28
139 171 174 28
140 171 175 28
141 176 177 28
142 176 178 28
143 176 179 28
144 176 180 28
145 181 182 28
146 181 183 28
147 181 184 28
148 181 185 28
149 186 187 28
150 186 188 28
151 186 189 28
152 186 190 28
153 191 192 28
154 191 193 28
155 191 194 28
156 191 195 28
157 196 197 28
158 196 198 28
159 196 199 28
160 196 200 28
161 201 202 28
162 201 203 28
163 201 204 28
164 201 205 28
165 206 207 28
166 206 208 28
167 206 209 28
168 206 210 28
169 211 212 28
170 211 213 28
171 211 214 28
172 211 215 28
173 216 217 28
174 216 218 28
175 216 219 28
176 216 220 28
177 221 222 28
178 221 223 28
179 221 224 28
180 221 225 28
181 226 227 28
182 226 228 28
183 226 229 28
184 226 230 28
185 231 232 28
186 231 233 28
187 231 234 28
188 231 235 28
189 236 237 28
190 236 238 28
191 236 239 28
192 236 240 28
193 241 242 28
194 241 243 28
195 241 244 28
196 241 245 28
197 246 247 28
198 246 248 28
199 246 249 28
200 246 250 28
201 251 252 28
202 251 253 28
203 251 254 28
204 251 255 28
205 256 257 28
206 256 258 28
207 256 259 28
208 256 260 28
209 261 262 28
210 261 263 28
211 261 264 28
212 261 265 28
213 266 267 28
214 266 268 28
215 266 269 28
216 266 270 28
217 271 272 28
218 271 273 28
219 271 274 28
220 271 275 28
221 276 277 28
222 276 278 28
223 276 279 28
224 276 280 28
225 281 282 28
226 281 283 28
227 281 284 28
228 281 285 28
229 286 287 28
230 286 288 28
231 286 289 28
232 286 290 28
233 291 292 28
234 291 293 28
235 291 294 28
236 291 295 28
237 296 297 28
238 296 298 28
239 296 299 28
240 296 300 28
241 301 302 28
242 301 303 28
243 301 304 28
244 301 305 28
245 306 307 28
246 306 308 28
247 306 309 28
248 306 310 28
249 311 312 28
250 311 313 28
251 311 314 28
252 311 315 28
253 316 317 28
254 316 318 28
255 316 319 28
256 316 320 28
257 321 322 28
258 321 323 28
259 321 324 28
260 321 325 28
261 326 327 28
262 326 328 28
263 326 329 28
264 326 330 28
265 331 332 28
266 331 333 28
267 331 334 28
268 331 335 28
269 336 337 28
270 336 338 28
271 336 339 28
272 336 340 28
273 341 342 28
274 341 343 28
275 341 344 28
276 341 345 28
277 346 347 28
278 346 348 28
279 346 349 28
280 346 350 28
281 351 352 28
282 351 353 28
283 351 354 28
284 351 355 28
285 356 357 28
286 356 358 28
287 356 359 28
288 356 360 28
289 361 362 28
290 361 363 28
291 361 364 28
292 361 365 28
293 366 367 28
294 366 368 28
295 366 369 28
296 366 370 28
297 371 372 28
298 371 373 28
299 371 374 28
300 371 375 28
301 376 377 28
302 376 378 28
303 376 379 28
304 376 380 28
305 381 382 28
306 381 383 28
307 381 384 28
308 381 385 28
309 386 387 28
310 386 388 28
311 386 389 28
312 386 390 28
313 391 392 28
314 391 393 28
315 391 394 28
316 391 395 28
317 396 397 28
318 396 398 28
319 396 399 28
320 396 400 28
321 401 402 28
322 401 403 28
323 401 404 28
324 401 405 28
325 406 407 28
326 406 408 28
327 406 409 28
328 406 410 28
329 411 412 28
330 411 413 28
331 411 414 28
332 411 415 28
333 416 417 28
334 416 418 28
335 416 419 28
336 416 420 28
337 421 422 28
338 421 423 28
339 421 424 28
340 421 425 28
341 426 427 28
342 426 428 28
343 426 429 28
344 426 430 28
345 431 432 28
346 431 433 28
347 431 434 28
348 431 435 28
349 436 437 28
350 436 438 28
351 436 439 28
352 436 440 28
353 441 442 28
354 441 443 28
355 441 444 28
356 441 445 28
357 446 447 28
358 446 448 28
359 446 449 28
360 446 450 28
361 451 452 28
362 451 453 28
363 451 454 28
364 451 455 28
365 456 457 28
366 456 458 28
367 456 459 28
368 456 460 28
369 461 462 28
370 461 463 28
371 461 464 28
372 461 465 28
373 466 467 28
374 466 468 28
375 466 469 28
376 466 470 28
377 471 472 28
378 471 473 28
379 471 474 28
380 471 475 28
381 476 477 28
382 476 478 28
383 476 479 28
384 476 480 28
385 481 482 28
386 481 483 28
387 481 484 28
388 481 485 28
389 486 487 28
390 486 488 28
391 486 489 28
392 486 490 28
393 491 492 28
394 491 493 28
395 491 494 28
396 491 495 28
397 496 497 28
398 496 498 28
399 496 499 28
400 496 500 28
401 501 502 28
402 501 503 28
403 501 504 28
404 501 505 28
405 506 507 28
406 506 508 28
407 506 509 28
408 506 510 28
409 511 512 28
410 511 513 28
411 511 514 28
412 511 515 28
413 516 517 28
414 516 518 28
415 516 519 28
416 516 520 28
417 521 522 28
418 521 523 28
419 521 524 28
420 521 525 28
421 526 527 28
422 526 528 28
423 526 529 28
424 526 530 28
425 531 532 28
426 531 533 28
427 531 534 28
428 531 535 28
429 536 537 28
430 536 538 28
431 536 539 28
432 536 540 28
433 541 542 28
434 541 543 28
435 541 544 28
436 541 545 28
437 546 547 28
438 546 548 28
439 546 549 28
440 546 550 28
441 551 552 28
442 551 553 28
443 551 554 28
444 551 555 28
445 556 557 28
446 556 558 28
447 556 559 28
448 556 560 28
449 561 562 28
450 561 563 28
451 561 564 28
452 561 565 28
453 566 567 28
454 566 568 28
455 566 569 28
456 566 570 28
457 571 572 28
458 571 573 28
459 571 574 28
460 571 575 28
461 576 577 28
462 576 578 28
463 576 579 28
464 576 580 28
465 581 582 28
466 581 583 28
467 581 584 28
468 581 585 28
469 586 587 28
470 586 588 28
471 586 589 28
472 586 590 28
473 591 592 28
474 591 593 28
475 591 594 28
476 591 595 28
477 596 597 28
478 596 598 28
479 596 599 28
480 596 600 28
481 601 602 28
482 601 603 28
483 601 604 28
484 601 605 28
485 606 607 28
486 606 608 28
487 606 609 28
488 606 610 28
489 611 612 28
490 611 613 28
491 611 614 28
492 611 615 28
493 616 617 28
494 616 618 28
495 616 619 28
496 616 620 28
497 621 622 28
498 621 623 28
499 621 624 28
500 621 625 28
501 626 627 28
502 626 628 28
503 626 629 28
504 626 630 28
505 631 632 28
506 631 633 28
507 631 634 28
508 631 635 28
509 636 637 28
510 636 638 28
511 636 639 28
512 636 640 28
513 641 642 28
514 641 643 28
515 641 644 28
516 641 645 28
517 646 647 28
518 646 648 28
519 646 649 28
520 646 650 28
521 651 652 28
522 651 653 28
523 651 654 28
524 651 655 28
525 656 657 28
526 656 658 28
527 656 659 28
528 656 660 28
529 661 662 28
530 661 663 28
531 661 664 28
532 661 665 28
533 666 667 28
534 666 668 28
535 666 669 28
536 666 670 28
537 671 672 28
538 671 673 28
539 671 674 28
540 671 675 28
541 676 677 28
542 676 678 28
543 676 679 28
544 676 680 28
545 681 682 28
546 681 683 28
547 681 684 28
548 681 685 28
549 686 687 28
550 686 688 28
551 686 689 28
552 686 690 28
553 691 692 28
554 691 693 28
555 691 694 28
556 691 695 28
557 696 697 28
558 696 698 28
559 696 699 28
560 696 700 28
561 701 702 28
562 701 703 28
563 701 704 28
564 701 705 28
565 706 707 28
566 706 708 28
567 706 709 28
568 706 710 28
569 711 712 28
570 711 713 28
571 711 714 28
572 711 715 28
573 716 717 28
574 716 718 28
575 716 719 28
576 716 720 28
577 721 722 28
578 721 723 28
579 721 724 28
580 721 725 28
581 726 727 28
582 726 728 28
583 726 729 28
584 726 730 28
585 731 732 28
586 731 733 28
587 731 734 28
588 731 735 28
589 736 737 28
590 736 738 28
591 736 739 28
592 736 740 28
593 741 742 28
594 741 743 28
595 741 744 28
596 741 745 28
597 746 747 28
598 746 748 28
599 746 749 28
600 746 750 28
601 751 752 28
602 751 753 28
603 751 754 28
604 751 755 28
605 756 757 28
606 756 758 28
607 756 759 28
608 756 760 28
609 761 762 28
610 761 763 28
611 761 764 28
612 761 765 28
613 766 767 28
614 766 768 28
615 766 769 28
616 766 770 28
617 771 772 28
618 771 773 28
619 771 774 28
620 771 775 28
621 776 777 28
622 776 778 28
623 776 779 28
624 776 780 28
625 781 782 28
626 781 783 28
627 781 784 28
628 781 785 28
629 786 787 28
630 786 788 28
631 786 789 28
632 786 790 28
633 791 792 28
634 791 793 28
635 791 794 28
636 791 795 28
637 796 797 28
638 796 798 28
639 796 799 28
640 796 800 28
641 801 802 28
642 801 803 28
643 801 804 28
644 801 805 28
645 806 807 28
646 806 808 28
647 806 809 28
648 806 810 28
649 811 812 28
650 811 813 28
651 811 814 28
652 811 815 28
653 816 817 28
654 816 818 28
655 816 819 28
656 816 820 28
657 821 822 28
658 821 823 28
659 821 824 28
660 821 825 28
661 826 827 28
662 826 828 28
663 826 829 28
664 826 830 28
665 831 832 28
666 831 833 28
667 831 834 28
668 831 835 28
669 836 837 28
670 836 838 28
671 836 839 28
672 836 840 28
673 841 842 28
674 841 843 28
675 841 844 28
676 841 845 28
677 846 847 28
678 846 848 28
679 846 849 28
680 846 850 28
681 851 852 28
682 851 853 28
683 851 854 28
684 851 855 28
685 856 857 28
686 856 858 28
687 856 859 28
688 856 860 28
689 861 862 28
690 861 863 28
691 861 864 28
692 861 865 28
693 866 867 28
694 866 868 28
695 866 869 28
696 866 870 28
697 871 872 28
698 871 873 28
699 871 874 28
700 871 875 28
701 876 877 28
702 876 878 28
703 876 879 28
704 876 880 28
705 881 882 28
706 881 883 28
707 881 884 28
708 881 885 28
709 886 887 28
710 886 888 28
711 886 889 28
712 886 890 28
713 891 892 28
714 891 893 28
715 891 894 28
716 891 895 28
717 896 897 28
718 896 898 28
719 896 899 28
720 896 900 28
721 901 902 28
722 901 903 28
723 901 904 28
724 901 905 28
725 906 907 28
726 906 908 28
727 906 909 28
728 906 910 28
729 911 912 28
730 911 913 28
731 911 914 28
732 911 915 28
733 916 917 28
734 916 918 28
735 916 919 28
736 916 920 28
737 921 922 28
738 921 923 28
739 921 924 28
740 921 925 28
741 926 927 28
742 926 928 28
743 926 929 28
744 926 930 28
745 931 932 28
746 931 933 28
747 931 934 28
748 931 935 28
749 936 937 28
750 936 938 28
751 936 939 28
752 936 940 28
753 941 942 28
754 941 943 28
755 941 944 28
756 941 945 28
757 946 947 28
758 946 948 28
759 946 949 28
760 946 950 28
761 951 952 28
762 951 953 28
763 951 954 28
764 951 955 28
765 956 957 28
766 956 958 28
767 956 959 28
768 956 960 28
769 961 962 28
770 961 963 28
771 961 964 28
772 961 965 28
773 966 967 28
774 966 968 28
775 966 969 28
776 966 970 28
777 971 972 28
778 971 973 28
779 971 974 28
780 971 975 28
781 976 977 28
782 976 978 28
783 976 979 28
784 976 980 28
785 981 982 28
786 981 983 28
787 981 984 28
788 981 985 28
789 986 987 28
790 986 988 28
791 986 989 28
792 986 990 28
793 991 992 28
794 991 993 28
795 991 994 28
796 991 995 28
797 996 997 28
798 996 998 28
799 996 999 28
800 996 1000 28
801 1001 1002 28
802 1001 1003 28
803 1001 1004 28
804 1001 1005 28
805 1006 1007 28
806 1006 1008 28
807 1006 1009 28
808 1006 1010 28
809 1011 1012 28
810 1011 1013 28
811 1011 1014 28
812 1011 1015 28
813 1016 1017 28
814 1016 1018 28
815 1016 1019 28
816 1016 1020 28
817 1021 1022 28
818 1021 1023 28
819 1021 1024 28
820 1021 1025 28
821 1026 1027 28
822 1026 1028 28
823 1026 1029 28
824 1026 1030 28
825 1031 1032 28
826 1031 1033 28
827 1031 1034 28
828 1031 1035 28
829 1036 1037 28
830 1036 1038 28
831 1036 1039 28
832 1036 1040 28
833 1041 1042 28
834 1041 1043 28
835 1041 1044 28
836 1041 1045 28
837 1046 1047 28
838 1046 1048 28
839 1046 1049 28
840 1046 1050 28
841 1051 1052 28
842 1051 1053 28
843 1051 1054 28
844 1051 1055 28
845 1056 1057 28
846 1056 1058 28
847 1056 1059 28
848 1056 1060 28
849 1061 1062 28
850 1061 1063 28
851 1061 1064 28
852 1061 1065 28
853 1066 1067 28
854 1066 1068 28
855 1066 1069 28
856 1066 1070 28
857 1071 1072 28
858 1071 1073 28
859 1071 1074 28
860 1071 1075 28
861 1076 1077 28
862 1076 1078 28
863 1076 1079 28
864 1076 1080 28
865 1081 1082 28
866 1081 1083 28
867 1081 1084 28
868 1081 1085 28
869 1086 1087 28
870 1086 1088 28
871 1086 1089 28
872 1086 1090 28
873 1091 1092 28
874 1091 1093 28
875 1091 1094 28
876 1091 1095 28
877 1096 1097 28
878 1096 1098 28
879 1096 1099 28
880 1096 1100 28
881 1101 1102 28
882 1101 1103 28
883 1101 1104 28
884 1101 1105 28
885 1106 1107 28
886 1106 1108 28
887 1106 1109 28
888 1106 1110 28
889 1111 1112 28
890 1111 1113 28
891 1111 1114 28
892 1111 1115 28
893 1116 1117 28
894 1116 1118 28
895 1116 1119 28
896 1116 1120 28
897 1121 1122 28
898 1121 1123 28
899 1121 1124 28
900 1121 1125 28
901 1126 1127 28
902 1126 1128 28
903 1126 1129 28
904 1126 1130 28
905 1131 1132 28
906 1131 1133 28
907 1131 1134 28
908 1131 1135 28
909 1136 1137 28
910 1136 1138 28
911 1136 1139 28
912 1136 1140 28
913 1141 1142 28
914 1141 1143 28
915 1141 1144 28
916 1141 1145 28
917 1146 1147 28
918 1146 1148 28
919 1146 1149 28
920 1146 1150 28
921 1151 1152 28
922 1151 1153 28
923 1151 1154 28
924 1151 1155 28
925 1156 1157 28
926 1156 1158 28
927 1156 1159 28
928 1156 1160 28
929 1161 1162 28
930 1161 1163 28
931 1161 1164 28
932 1161 1165 28
933 1166 1167 28
934 1166 1168 28
935 1166 1169 28
936 1166 1170 28
937 1171 1172 28
938 1171 1173 28
939 1171 1174 28
940 1171 1175 28
941 1176 1177 28
942 1176 1178 28
943 1176 1179 28
944 1176 1180 28
945 1181 1182 28
946 1181 1183 28
947 1181 1184 28
948 1181 1185 28
949 1186 1187 28
950 1186 1188 28
951 1186 1189 28
952 1186 1190 28
953 1191 1192 28
954 1191 1193 28
955 1191 1194 28
956 1191 1195 28
957 1196 1197 28
958 1196 1198 28
959 1196 1199 28
960 1196 1200 28
961 1201 1202 28
962 1201 1203 28
963 1201 1204 28
964 1201 1205 28
965 1206 1207 28
966 1206 1208 28
967 1206 1209 28
968 1206 1210 28
969 1211 1212 28
970 1211 1213 28
971 1211 1214 28
972 1211 1215 28
973 1216 1217 28
974 1216 1218 28
975 1216 1219 28
976 1216 1220 28
977 1221 1222 28
978 1221 1223 28
979 1221 1224 28
980 1221 1225 28
981 1226 1227 28
982 1226 1228 28
983 1226 1229 28
984 1226 1230 28
985 1231 1232 28
986 1231 1233 28
987 1231 1234 28
988 1231 1235 28
989 1236 1237 28
990 1236 1238 28
991 1236 1239 28
992 1236 1240 28
993 1241 1242 28
994 1241 1243 28
995 1241 1244 28
996 1241 1245 28
997 1246 1247 28
998 1246 1248 28
999 1246 1249 28
1000 1246 1250 28
1001 1251 1252 28
1002 1251 1253 28
1003 1251 1254 28
1004 1251 1255 28
1005 1256 1257 28
1006 1256 1258 28
1007 1256 1259 28
1008 1256 1260 28
1009 1261 1262 28
1010 1261 1263 28
1011 1261 1264 28
1012 1261 1265 28
1013 1266 1267 28
1014 1266 1268 28
1015 1266 1269 28
1016 1266 1270 28
1017 1271 1272 28
1018 1271 1273 28
1019 1271 1274 28
1020 1271 1275 28
1021 1276 1277 28
1022 1276 1278 28
1023 1276 1279 28
1024 1276 1280 28
1025 1281 1282 28
1026 1281 1283 28
1027 1281 1284 28
1028 1281 1285 28
1029 1286 1287 28
1030 1286 1288 28
1031 1286 1289 28
1032 1286 1290 28
1033 1291 1292 28
1034 1291 1293 28
1035 1291 1294 28
1036 1291 1295 28
1037 1296 1297 28
1038 1296 1298 28
1039 1296 1299 28
1040 1296 1300 28
1041 1301 1302 28
1042 1301 1303 28
1043 1301 1304 28
1044 1301 1305 28
1045 1306 1307 28
1046 1306 1308 28
1047 1306 1309 28
1048 1306 1310 28
1049 1311 1312 28
1050 1311 1313 28
1051 1311 1314 28
1052 1311 1315 28
1053 1316 1317 28
1054 1316 1318 28
1055 1316 1319 28
1056 1316 1320 28
1057 1321 1322 28
1058 1321 1323 28
1059 1321 1324 28
1060 1321 1325 28
1061 1326 1327 28
1062 1326 1328 28
1063 1326 1329 28
1064 1326 1330 28
1065 1331 1332 28
1066 1331 1333 28
1067 1331 1334 28
1068 1331 1335 28
1069 1336 1337 28
1070 1336 1338 28
1071 1336 1339 28
1072 1336 1340 28
1073 1341 1342 28
1074 1341 1343 28
1075 1341 1344 28
1076 1341 1345 28
1077 1346 1347 28
1078 1346 1348 28
1079 1346 1349 28
1080 1346 1350 28
1081 1351 1352 28
1082 1351 1353 28
1083 1351 1354 28
1084 1351 1355 28
1085 1356 1357 28
1086 1356 1358 28
1087 1356 1359 28
1088 1356 1360 28
1089 1361 1362 28
1090 1361 1363 28
1091 1361 1364 28
1092 1361 1365 28
1093 1366 1367 28
1094 1366 1368 28
1095 1366 1369 28
1096 1366 1370 28
1097 1371 1372 28
1098 1371 1373 28
1099 1371 1374 28
1100 1371 1375 28
1101 1376 1377 28
1102 1376 1378 28
1103 1376 1379 28
1104 1376 1380 28
1105 1381 1382 28
1106 1381 1383 28
1107 1381 1384 28
1108 1381 1385 28
1109 1386 1387 28
1110 1386 1388 28
1111 1386 1389 28
1112 1386 1390 28
1113 1391 1392 28
1114 1391 1393 28
1115 1391 1394 28
1116 1391 1395 28
1117 1396 1397 28
1118 1396 1398 28
1119 1396 1399 28
1120 1396 1400 28
1121 1401 1402 28
1122 1401 1403 28
1123 1401 1404 28
1124 1401 1405 28
1125 1406 1407 28
1126 1406 1408 28
1127 1406 1409 28
1128 1406 1410 28
1129 1411 1412 28
1130 1411 1413 28
1131 1411 1414 28
1132 1411 1415 28
1133 1416 1417 28
1134 1416 1418 28
1135 1416 1419 28
1136 1416 1420 28
1137 1421 1422 28
1138 1421 1423 28
1139 1421 1424 28
1140 1421 1425 28
1141 1426 1427 28
1142 1426 1428 28
1143 1426 1429 28
1144 1426 1430 28
1145 1431 1432 28
1146 1431 1433 28
1147 1431 1434 28
1148 1431 1435 28
1149 1436 1437 28
1150 1436 1438 28
1151 1436 1439 28
1152 1436 1440 28
1153 1441 1442 28
1154 1441 1443 28
1155 1441 1444 28
1156 1441 1445 28
1157 1446 1447 28
1158 1446 1448 28
1159 1446 1449 28
1160 1446 1450 28
1161 1451 1452 28
1162 1451 1453 28
1163 1451 1454 28
1164 1451 1455 28
1165 1456 1457 28
1166 1456 1458 28
1167 1456 1459 28
1168 1456 1460 28
1169 1461 1462 28
1170 1461 1463 28
1171 1461 1464 28
1172 1461 1465 28
1173 1466 1467 28
1174 1466 1468 28
1175 1466 1469 28
1176 1466 1470 28
1177 1471 1472 28
1178 1471 1473 28
1179 1471 1474 28
1180 1471 1475 28
1181 1476 1477 28
1182 1476 1478 28
1183 1476 1479 28
1184 1476 1480 28
1185 1481 1482 28
1186 1481 1483 28
1187 1481 1484 28
1188 1481 1485 28
1189 1486 1487 28
1190 1486 1488 28
1191 1486 1489 28
1192 1486 1490 28
1193 1491 1492 28
1194 1491 1493 28
1195 1491 1494 28
1196 1491 1495 28
1197 1496 1497 28
1198 1496 1498 28
1199 1496 1499 28
1200 1496 1500 28
1201 1501 1502 28
1202 1501 1503 28
1203 1501 1504 28
1204 1501 1505 28
1205 1506 1507 28
1206 1506 1508 28
1207 1506 1509 28
1208 1506 1510 28
1209 1511 1512 28
1210 1511 1513 28
1211 1511 1514 28
1212 1511 1515 28
1213 1516 1517 28
1214 1516 1518 28
1215 1516 1519 28
1216 1516 1520 28
1217 1521 1522 28
1218 1521 1523 28
1219 1521 1524 28
1220 1521 1525 28
1221 1526 1527 28
1222 1526 1528 28
1223 1526 1529 28
1224 1526 1530 28
1225 1531 1532 28
1226 1531 1533 28
1227 1531 1534 28
1228 1531 1535 28
1229 1536 1537 28
1230 1536 1538 28
1231 1536 1539 28
1232 1536 1540 28
1233 1541 1542 28
1234 1541 1543 28
1235 1541 1544 28
1236 1541 1545 28
1237 1546 1547 28
1238 1546 1548 28
1239 1546 1549 28
1240 1546 1550 28
1241 1551 1552 28
1242 1551 1553 28
1243 1551 1554 28
1244 1551 1555 28
1245 1556 1557 28
1246 1556 1558 28
1247 1556 1559 28
1248 1556 1560 28
1249 1561 1562 28
1250 1561 1563 28
1251 1561 1564 28
1252 1561 1565 28
1253 1566 1567 28
1254 1566 1568 28
1255 1566 1569 28
1256 1566 1570 28
1257 1571 1572 28
1258 1571 1573 28
1259 1571 1574 28
1260 1571 1575 28
1261 1576 1577 28
1262 1576 1578 28
1263 1576 1579 28
1264 1576 1580 28
1265 1581 1582 28
1266 1581 1583 28
1267 1581 1584 28
1268 1581 1585 28
1269 1586 1587 28
1270 1586 1588 28
1271 1586 1589 28
1272 1586 1590 28
1273 1591 1592 28
1274 1591 1593 28
1275 1591 1594 28
1276 1591 1595 28
1277 1596 1597 28
1278 1596 1598 28
1279 1596 1599 28
1280 1596 1600 28
1281 1601 1602 28
1282 1601 1603 28
1283 1601 1604 28
1284 1601 1605 28
1285 1606 1607 28
1286 1606 1608 28
1287 1606 1609 28
1288 1606 1610 28
1289 1611 1612 28
1290 1611 1613 28
1291 1611 1614 28
1292 1611 1615 28
1293 1616 1617 28
1294 1616 1618 28
1295 1616 1619 28
1296 1616 1620 28
1297 1621 1622 28
1298 1621 1623 28
1299 1621 1624 28
1300 1621 1625 28
1301 1626 1627 28
1302 1626 1628 28
1303 1626 1629 28
1304 1626 1630 28
1305 1631 1632 28
1306 1631 1633 28
1307 1631 1634 28
1308 1631 1635 28
1309 1636 1637 28
1310 1636 1638 28
1311 1636 1639 28
1312 1636 1640 28
1313 1641 1642 28
1314 1641 1643 28
1315 1641 1644 28
1316 1641 1645 28
1317 1646 1647 28
1318 1646 1648 28
1319 1646 1649 28
1320 1646 1650 28
1321 1651 1652 28
1322 1651 1653 28
1323 1651 1654 28
1324 1651 1655 28
1325 1656 1657 28
1326 1656 1658 28
1327 1656 1659 28
1328 1656 1660 28
1329 1661 1662 28
1330 1661 1663 28
1331 1661 1664 28
1332 1661 1665 28
1333 1666 1667 28
1334 1666 1668 28
1335 1666 1669 28
1336 1666 1670 28
1337 1671 1672 28
1338 1671 1673 28
1339 1671 1674 28
1340 1671 1675 28
1341 1676 1677 28
1342 1676 1678 28
1343 1676 1679 28
1344 1676 1680 28
1345 1681 1682 28
1346 1681 1683 28
1347 1681 1684 28
1348 1681 1685 28
1349 1686 1687 28
1350 1686 1688 28
1351 1686 1689 28
1352 1686 1690 28
1353 1691 1692 28
1354 1691 1693 28
1355 1691 1694 28
1356 1691 1695 28
1357 1696 1697 28
1358 1696 1698 28
1359 1696 1699 28
1360 1696 1700 28
1361 1701 1702 28
1362 1701 1703 28
1363 1701 1704 28
1364 1701 1705 28
1365 1706 1707 28
1366 1706 1708 28
1367 1706 1709 28
1368 1706 1710 28
1369 1711 1712 28
1370 1711 1713 28
1371 1711 1714 28
1372 1711 1715 28
1373 1716 1717 28
1374 1716 1718 28
1375 1716 1719 28
1376 1716 1720 28
1377 1721 1722 28
1378 1721 1723 28
1379 1721 1724 28
1380 1721 1725 28
1381 1726 1727 28
1382 1726 1728 28
1383 1726 1729 28
1384 1726 1730 28
1385 1731 1732 28
1386 1731 1733 28
1387 1731 1734 28
1388 1731 1735 28
1389 1736 1737 28
1390 1736 1738 28
1391 1736 1739 28
1392 1736 1740 28
1393 1741 1742 28
1394 1741 1743 28
1395 1741 1744 28
1396 1741 1745 28
1397 1746 1747 28
1398 1746 1748 28
1399 1746 1749 28
1400 1746 1750 28
1401 1751 1752 28
1402 1751 1753 28
1403 1751 1754 28
1404 1751 1755 28
1405 1756 1757 28
1406 1756 1758 28
1407 1756 1759 28
1408 1756 1760 28
1409 1761 1762 28
1410 1761 1763 28
1411 1761 1764 28
1412 1761 1765 28
1413 1766 1767 28
1414 1766 1768 28
1415 1766 1769 28
1416 1766 1770 28
1417 1771 1772 28
1418 1771 1773 28
1419 1771 1774 28
1420 1771 1775 28
1421 1776 1777 28
1422 1776 1778 28
1423 1776 1779 28
1424 1776 1780 28
1425 1781 1782 28
1426 1781 1783 28
1427 1781 1784 28
1428 1781 1785 28
1429 1786 1787 28
1430 1786 1788 28
1431 1786 1789 28
1432 1786 1790 28
1433 1791 1792 28
1434 1791 1793 28
1435 1791 1794 28
1436 1791 1795 28
1437 1796 1797 28
1438 1796 1798 28
1439 1796 1799 28
1440 1796 1800 28
1441 1801 1802 28
1442 1801 1803 28
1443 1801 1804 28
1444 1801 1805 28
1445 1806 1807 28
1446 1806 1808 28
1447 1806 1809 28
1448 1806 1810 28
1449 1811 1812 28
1450 1811 1813 28
1451 1811 1814 28
1452 1811 1815 28
1453 1816 1817 28
1454 1816 1818 28
1455 1816 1819 28
1456 1816 1820 28
1457 1821 1822 28
1458 1821 1823 28
1459 1821 1824 28
1460 1821 1825 28
1461 1826 1827 28
1462 1826 1828 28
1463 1826 1829 28
1464 1826 1830 28
1465 1831 1832 28
1466 1831 1833 28
1467 1831 1834 28
1468 1831 1835 28
1469 1836 1837 28
1470 1836 1838 28
1471 1836 1839 28
1472 1836 1840 28
1473 1841 1842 28
1474 1841 1843 28
1475 1841 1844 28
1476 1841 1845 28
1477 1846 1847 28
1478 1846 1848 28
1479 1846 1849 28
1480 1846 1850 28
1481 1851 1852 28
1482 1851 1853 28
1483 1851 1854 28
1484 1851 1855 28
1485 1856 1857 28
1486 1856 1858 28
1487 1856 1859 28
1488 1856 1860 28
1489 1861 1862 28
1490 1861 1863 28
1491 1861 1864 28
1492 1861 1865 28
1493 1866 1867 28
1494 1866 1868 28
1495 1866 1869 28
1496 1866 1870 28
1497 1871 1872 28
1498 1871 1873 28
1499 1871 1874 28
1500 1871 1875 28
1501 1876 1877 28
1502 1876 1878 28
1503 1876 1879 28
1504 1876 1880 28
1505 1881 1882 28
1506 1881 1883 28
1507 1881 1884 28
1508 1881 1885 28
1509 1886 1887 28
1510 1886 1888 28
1511 1886 1889 28
1512 1886 1890 28
1513 1891 1892 28
1514 1891 1893 28
1515 1891 1894 28
1516 1891 1895 28
1517 1896 1897 28
1518 1896 1898 28
1519 1896 1899 28
1520 1896 1900 28
1521 1901 1902 28
1522 1901 1903 28
1523 1901 1904 28
1524 1901 1905 28
1525 1906 1907 28
1526 1906 1908 28
1527 1906 1909 28
1528 1906 1910 28
1529 1911 1912 28
1530 1911 1913 28
1531 1911 1914 28
1532 1911 1915 28
1533 1916 1917 28
1534 1916 1918 28
1535 1916 1919 28
1536 1916 1920 28
1537 1921 1922 28
1538 1921 1923 28
1539 1921 1924 28
1540 1921 1925 28
1541 1926 1927 28
1542 1926 1928 28
1543 1926 1929 28
1544 1926 1930 28
1545 1931 1932 28
1546 1931 1933 28
1547 1931 1934 28
1548 1931 1935 28
1549 1936 1937 28
1550 1936 1938 28
1551 1936 1939 28
1552 1936 1940 28
1553 1941 1942 28
1554 1941 1943 28
1555 1941 1944 28
1556 1941 1945 28
1557 1946 1947 28
1558 1946 1948 28
1559 1946 1949 28
1560 1946 1950 28
1561 1951 1952 28
1562 1951 1953 28
1563 1951 1954 28
1564 1951 1955 28
1565 1956 1957 28
1566 1956 1958 28
1567 1956 1959 28
1568 1956 1960 28
1569 1961 1962 28
1570 1961 1963 28
1571 1961 1964 28
1572 1961 1965 28
1573 1966 1967 28
1574 1966 1968 28
1575 1966 1969 28
1576 1966 1970 28
1577 1971 1972 28
1578 1971 1973 28
1579 1971 1974 28
1580 1971 1975 28
1581 1976 1977 28
1582 1976 1978 28
1583 1976 1979 28
1584 1976 1980 28
1585 1981 1982 28
1586 1981 1983 28
1587 1981 1984 28
1588 1981 1985 28
1589 1986 1987 28
1590 1986 1988 28
1591 1986 1989 28
1592 1986 1990 28
1593 1991 1992 28
1594 1991 1993 28
1595 1991 1994 28
1596 1991 1995 28
1597 1996 1997 28
1598 1996 1998 28
1599 1996 1999 28
1600 1996 2000 28
1601 2001 2002 28
1602 2001 2003 28
1603 2001 2004 28
1604 2001 2005 28
1605 2006 2007 28
1606 2006 2008 28
1607 2006 2009 28
1608 2006 2010 28
1609 2011 2012 28
1610 2011 2013 28
1611 2011 2014 28
1612 2011 2015 28
1613 2016 2017 28
1614 2016 2018 28
1615 2016 2019 28
1616 2016 2020 28
1617 2021 2022 28
1618 2021 2023 28
1619 2021 2024 28
1620 2021 2025 28
1621 2026 2027 28
1622 2026 2028 28
1623 2026 2029 28
1624 2026 2030 28
1625 2031 2032 28
1626 2031 2033 28
1627 2031 2034 28
1628 2031 2035 28
1629 2036 2037 28
1630 2036 2038 28
1631 2036 2039 28
1632 2036 2040 28
1633 2041 2042 28
1634 2041 2043 28
1635 2041 2044 28
1636 2041 2045 28
1637 2046 2047 28
1638 2046 2048 28
1639 2046 2049 28
1640 2046 2050 28
1641 2051 2052 28
1642 2051 2053 28
1643 2051 2054 28
1644 2051 2055 28
1645 2056 2057 28
1646 2056 2058 28
1647 2056 2059 28
1648 2056 2060 28
1649 2061 2062 28
1650 2061 2063 28
1651 2061 2064 28
1652 2061 2065 28
1653 2066 2067 28
1654 2066 2068 28
1655 2066 2069 28
1656 2066 2070 28
1657 2071 2072 28
1658 2071 2073 28
1659 2071 2074 28
1660 2071 2075 28
1661 2076 2077 28
1662 2076 2078 28
1663 2076 2079 28
1664 2076 2080 28
1665 2081 2082 28
1666 2081 2083 28
1667 2081 2084 28
1668 2081 2085 28
1669 2086 2087 28
1670 2086 2088 28
1671 2086 2089 28
1672 2086 2090 28
1673 2091 2092 28
1674 2091 2093 28
1675 2091 2094 28
1676 2091 2095 28
1677 2096 2097 28
1678 2096 2098 28
1679 2096 2099 28
1680 2096 2100 28
1681 2101 2102 28
1682 2101 2103 28
1683 2101 2104 28
1684 2101 2105 28
1685 2106 2107 28
1686 2106 2108 28
1687 2106 2109 28
1688 2106 2110 28
1689 2111 2112 28
1690 2111 2113 28
1691 2111 2114 28
1692 2111 2115 28
1693 2116 2117 28
1694 2116 2118 28
1695 2116 2119 28
1696 2116 2120 28
1697 2121 2122 28
1698 2121 2123 28
1699 2121 2124 28
1700 2121 2125 28
1701 2126 2127 28
1702 2126 2128 28
1703 2126 2129 28
1704 2126 2130 28
1705 2131 2132 28
1706 2131 2133 28
1707 2131 2134 28
1708 2131 2135 28
1709 2136 2137 28
1710 2136 2138 28
1711 2136 2139 28
1712 2136 2140 28
1713 2141 2142 28
1714 2141 2143 28
1715 2141 2144 28
1716 2141 2145 28
1717 2146 2147 28
1718 2146 2148 28
1719 2146 2149 28
1720 2146 2150 28
1721 2151 2152 28
1722 2151 2153 28
1723 2151 2154 28
1724 2151 2155 28
1725 2156 2157 28
1726 2156 2158 28
1727 2156 2159 28
1728 2156 2160 28
1729 2161 2162 28
1730 2161 2163 28
1731 2161 2164 28
1732 2161 2165 28
1733 2166 2167 28
1734 2166 2168 28
1735 2166 2169 28
1736 2166 2170 28
1737 2171 2172 28
1738 2171 2173 28
1739 2171 2174 28
1740 2171 2175 28
1741 2176 2177 28
1742 2176 2178 28
1743 2176 2179 28
1744 2176 2180 28
1745 2181 2182 28
1746 2181 2183 28
1747 2181 2184 28
1748 2181 2185 28
1749 2186 2187 28
1750 2186 2188 28
1751 2186 2189 28
1752 2186 2190 28
1753 2191 2192 28
1754 2191 2193 28
1755 2191 2194 28
1756 2191 2195 28
1757 2196 2197 28
1758 2196 2198 28
1759 2196 2199 28
1760 2196 2200 28
1761 2201 2202 28
1762 2201 2203 28
1763 2201 2204 28
1764 2201 2205 28
1765 2206 2207 28
1766 2206 2208 28
1767 2206 2209 28
1768 2206 2210 28
1769 2211 2212 28
1770 2211 2213 28
1771 2211 2214 28
1772 2211 2215 28
1773 2216 2217 28
1774 2216 2218 28
1775 2216 2219 28
1776 2216 2220 28
1777 2221 2222 28
1778 2221 2223 28
1779 2221 2224 28
1780 2221 2225 28
1781 2226 2227 28
1782 2226 2228 28
1783 2226 2229 28
1784 2226 2230 28
1785 2231 2232 28
1786 2231 2233 28
1787 2231 2234 28
1788 2231 2235 28
1789 2236 2237 28
1790 2236 2238 28
1791 2236 2239 28
1792 2236 2240 28
1793 2241 2242 28
1794 2241 2243 28
1795 2241 2244 28
1796 2241 2245 28
1797 2246 2247 28
1798 2246 2248 28
1799 2246 2249 28
1800 2246 2250 28
1801 2251 2252 28
1802 2251 2253 28
1803 2251 2254 28
1804 2251 2255 28
1805 2256 2257 28
1806 2256 2258 28
1807 2256 2259 28
1808 2256 2260 28
1809 2261 2262 28
1810 2261 2263 28
1811 2261 2264 28
1812 2261 2265 28
1813 2266 2267 28
1814 2266 2268 28
1815 2266 2269 28
1816 2266 2270 28
1817 2271 2272 28
1818 2271 2273 28
1819 2271 2274 28
1820 2271 2275 28
1821 2276 2277 28
1822 2276 2278 28
1823 2276 2279 28
1824 2276 2280 28
1825 2281 2282 28
1826 2281 2283 28
1827 2281 2284 28
1828 2281 2285 28
1829 2286 2287 28
1830 2286 2288 28
1831 2286 2289 28
1832 2286 2290 28
1833 2291 2292 28
1834 2291 2293 28
1835 2291 2294 28
1836 2291 2295 28
1837 2296 2297 28
1838 2296 2298 28
1839 2296 2299 28
1840 2296 2300 28
1841 2301 2302 28
1842 2301 2303 28
1843 2301 2304 28
1844 2301 2305 28
1845 2306 2307 28
1846 2306 2308 28
1847 2306 2309 28
1848 2306 2310 28
1849 2311 2312 28
1850 2311 2313 28
1851 2311 2314 28
1852 2311 2315 28
1853 2316 2317 28
1854 2316 2318 28
1855 2316 2319 28
1856 2316 2320 28
1857 2321 2322 28
1858 2321 2323 28
1859 2321 2324 28
1860 2321 2325 28
1861 2326 2327 28
1862 2326 2328 28
1863 2326 2329 28
1864 2326 2330 28
1865 2331 2332 28
1866 2331 2333 28
1867 2331 2334 28
1868 2331 2335 28
1869 2336 2337 28
1870 2336 2338 28
1871 2336 2339 28
1872 2336 2340 28
1873 2341 2342 28
1874 2341 2343 28
1875 2341 2344 28
1876 2341 2345 28
1877 2346 2347 28
1878 2346 2348 28
1879 2346 2349 28
1880 2346 2350 28
1881 2351 2352 28
1882 2351 2353 28
1883 2351 2354 28
1884 2351 2355 28
1885 2356 2357 28
1886 2356 2358 28
1887 2356 2359 28
1888 2356 2360 28
1889 2361 2362 28
1890 2361 2363 28
1891 2361 2364 28
1892 2361 2365 28
1893 2366 2367 28
1894 2366 2368 28
1895 2366 2369 28
1896 2366 2370 28
1897 2371 2372 28
1898 2371 2373 28
1899 2371 2374 28
1900 2371 2375 28
1901 2376 2377 28
1902 2376 2378 28
1903 2376 2379 28
1904 2376 2380 28
1905 2381 2382 28
1906 2381 2383 28
1907 2381 2384 28
1908 2381 2385 28
1909 2386 2387 28
1910 2386 2388 28
1911 2386 2389 28
1912 2386 2390 28
1913 2391 2392 28
1914 2391 2393 28
1915 2391 2394 28
1916 2391 2395 28
1917 2396 2397 28
1918 2396 2398 28
1919 2396 2399 28
1920 2396 2400 28
1921 2401 2402 28
1922 2401 2403 28
1923 2401 2404 28
1924 2401 2405 28
1925 2406 2407 28
1926 2406 2408 28
1927 2406 2409 28
1928 2406 2410 28
1929 2411 2412 28
1930 2411 2413 28
1931 2411 2414 28
1932 2411 2415 28
1933 2416 2417 28
1934 2416 2418 28
1935 2416 2419 28
1936 2416 2420 28
1937 2421 2422 28
1938 2421 2423 28
1939 2421 2424 28
1940 2421 2425 28
1941 2426 2427 28
1942 2426 2428 28
1943 2426 2429 28
1944 2426 2430 28
1945 2431 2432 28
1946 2431 2433 28
1947 2431 2434 28
1948 2431 2435 28
1949 2436 2437 28
1950 2436 2438 28
1951 2436 2439 28
1952 2436 2440 28
1953 2441 2442 28
1954 2441 2443 28
1955 2441 2444 28
1956 2441 2445 28
1957 2446 2447 28
1958 2446 2448 28
1959 2446 2449 28
1960 2446 2450 28
1961 2451 2452 28
1962 2451 2453 28
1963 2451 2454 28
1964 2451 2455 28
1965 2456 2457 28
1966 2456 2458 28
1967 2456 2459 28
1968 2456 2460 28
1969 2461 2462 28
1970 2461 2463 28
1971 2461 2464 28
1972 2461 2465 28
1973 2466 2467 28
1974 2466 2468 28
1975 2466 2469 28
1976 2466 2470 28
1977 2471 2472 28
1978 2471 2473 28
1979 2471 2474 28
1980 2471 2475 28
1981 2476 2477 28
1982 2476 2478 28
1983 2476 2479 28
1984 2476 2480 28
1985 2481 2482 28
1986 2481 2483 28
1987 2481 2484 28
1988 2481 2485 28
1989 2486 2487 28
1990 2486 2488 28
1991 2486 2489 28
1992 2486 2490 28
1993 2491 2492 28
1994 2491 2493 28
1995 2491 2494 28
1996 2491 2495 28
1997 2496 2497 28
1998 2496 2498 28
1999 2496 2499 28
2000 2496 2500 28
2001 2501 2502 28
2002 2501 2503 28
2003 2501 2504 28
2004 2501 2505 28
2005 2506 2507 28
2006 2506 2508 28
2007 2506 2509 28
2008 2506 2510 28
2009 2511 2512 28
2010 2511 2513 28
2011 2511 2514 28
2012 2511 2515 28
2013 2516 2517 28
2014 2516 2518 28
2015 2516 2519 28
2016 2516 2520 28
2017 2521 2522 28
2018 2521 2523 28
2019 2521 2524 28
2020 2521 2525 28
2021 2526 2527 28
2022 2526 2528 28
2023 2526 2529 28
2024 2526 2530 28
2025 2531 2532 28
2026 2531 2533 28
2027 2531 2534 28
2028 2531 2535 28
2029 2536 2537 28
2030 2536 2538 28
2031 2536 2539 28
2032 2536 2540 28
2033 2541 2542 28
2034 2541 2543 28
2035 2541 2544 28
2036 2541 2545 28
2037 2546 2547 28
2038 2546 2548 28
2039 2546 2549 28
2040 2546 2550 28
2041 2551 2552 28
2042 2551 2553 28
2043 2551 2554 28
2044 2551 2555 28
2045 2556 2557 28
2046 2556 2558 28
2047 2556 2559 28
2048 2556 2560 28
2049 2561 2562 28
2050 2561 2563 28
2051 2561 2564 28
2052 2561 2565 28
2053 2566 2567 28
2054 2566 2568 28
2055 2566 2569 28
2056 2566 2570 28
2057 2571 2572 28
2058 2571 2573 28
2059 2571 2574 28
2060 2571 2575 28
2061 2576 2577 28
2062 2576 2578 28
2063 2576 2579 28
2064 2576 2580 28
2065 2581 2582 28
2066 2581 2583 28
2067 2581 2584 28
2068 2581 2585 28
2069 2586 2587 28
2070 2586 2588 28
2071 2586 2589 28
2072 2586 2590 28
2073 2591 2592 28
2074 2591 2593 28
2075 2591 2594 28
2076 2591 2595 28
2077 2596 2597 28
2078 2596 2598 28
2079 2596 2599 28
2080 2596 2600 28
2081 2601 2602 28
2082 2601 2603 28
2083 2601 2604 28
2084 2601 2605 28
2085 2606 2607 28
2086 2606 2608 28
2087 2606 2609 28
2088 2606 2610 28
2089 2611 2612 28
2090 2611 2613 28
2091 2611 2614 28
2092 2611 2615 28
2093 2616 2617 28
2094 2616 2618 28
2095 2616 2619 28
2096 2616 2620 28
2097 2621 2622 28
2098 2621 2623 28
2099 2621 2624 28
2100 2621 2625 28
2101 2626 2627 28
2102 2626 2628 28
2103 2626 2629 28
2104 2626 2630 28
2105 2631 2632 28
2106 2631 2633 28
2107 2631 2634 28
2108 2631 2635 28
2109 2636 2637 28
2110 2636 2638 28
2111 2636 2639 28
2112 2636 2640 28
2113 2641 2642 28
2114 2641 2643 28
2115 2641 2644 28
2116 2641 2645 28
2117 2646 2647 28
2118 2646 2648 28
2119 2646 2649 28
2120 2646 2650 28
2121 2651 2652 28
2122 2651 2653 28
2123 2651 2654 28
2124 2651 2655 28
2125 2656 2657 28
2126 2656 2658 28
2127 2656 2659 28
2128 2656 2660 28
2129 2661 2662 28
2130 2661 2663 28
2131 2661 2664 28
2132 2661 2665 28
2133 2666 2667 28
2134 2666 2668 28
2135 2666 2669 28
2136 2666 2670 28
2137 2671 2672 28
2138 2671 2673 28
2139 2671 2674 28
2140 2671 2675 28
2141 2676 2677 28
2142 2676 2678 28
2143 2676 2679 28
2144 2676 2680 28
2145 2681 2682 28
2146 2681 2683 28
2147 2681 2684 28
2148 2681 2685 28
2149 2686 2687 28
2150 2686 2688 28
2151 2686 2689 28
2152 2686 2690 28
2153 2691 2692 28
2154 2691 2693 28
2155 2691 2694 28
2156 2691 2695 28
2157 2696 2697 28
2158 2696 2698 28
2159 2696 2699 28
2160 2696 2700 28
2161 2701 2702 28
2162 2701 2703 28
2163 2701 2704 28
2164 2701 2705 28
2165 2706 2707 28
2166 2706 2708 28
2167 2706 2709 28
2168 2706 2710 28
2169 2711 2712 28
2170 2711 2713 28
2171 2711 2714 28
2172 2711 2715 28
2173 2716 2717 28
2174 2716 2718 28
2175 2716 2719 28
2176 2716 2720 28
2177 2721 2722 28
2178 2721 2723 28
2179 2721 2724 28
2180 2721 2725 28
2181 2726 2727 28
2182 2726 2728 28
2183 2726 2729 28
2184 2726 2730 28
2185 2731 2732 28
2186 2731 2733 28
2187 2731 2734 28
2188 2731 2735 28
2189 2736 2737 28
2190 2736 2738 28
2191 2736 2739 28
2192 2736 2740 28
2193 2741 2742 28
2194 2741 2743 28
2195 2741 2744 28
2196 2741 2745 28
2197 2746 2747 28
2198 2746 2748 28
2199 2746 2749 28
2200 2746 2750 28
2201 2751 2752 28
2202 2751 2753 28
2203 2751 2754 28
2204 2751 2755 28
2205 2756 2757 28
2206 2756 2758 28
2207 2756 2759 28
2208 2756 2760 28
2209 2761 2762 28
2210 2761 2763 28
2211 2761 2764 28
2212 2761 2765 28
2213 2766 2767 28
2214 2766 2768 28
2215 2766 2769 28
2216 2766 2770 28
2217 2771 2772 28
2218 2771 2773 28
2219 2771 2774 28
2220 2771 2775 28
2221 2776 2777 28
2222 2776 2778 28
2223 2776 2779 28
2224 2776 2780 28
2225 2781 2782 28
2226 2781 2783 28
2227 2781 2784 28
2228 2781 2785 28
2229 2786 2787 28
2230 2786 2788 28
2231 2786 2789 28
2232 2786 2790 28
2233 2791 2792 28
2234 2791 2793 28
2235 2791 2794 28
2236 2791 2795 28
2237 2796 2797 28
2238 2796 2798 28
2239 2796 2799 28
2240 2796 2800 28
2241 2801 2802 28
2242 2801 2803 28
2243 2801 2804 28
2244 2801 2805 28
2245 2806 2807 28
2246 2806 2808 28
2247 2806 2809 28
2248 2806 2810 28
2249 2811 2812 28
2250 2811 2813 28
2251 2811 2814 28
2252 2811 2815 28
2253 2816 2817 28
2254 2816 2818 28
2255 2816 2819 28
2256 2816 2820 28
2257 2821 2822 28
2258 2821 2823 28
2259 2821 2824 28
2260 2821 2825 28
2261 2826 2827 28
2262 2826 2828 28
2263 2826 2829 28
2264 2826 2830 28
2265 2831 2832 28
2266 2831 2833 28
2267 2831 2834 28
2268 2831 2835 28
2269 2836 2837 28
2270 2836 2838 28
2271 2836 2839 28
2272 2836 2840 28
2273 2841 2842 28
2274 2841 2843 28
2275 2841 2844 28
2276 2841 2845 28
2277 2846 2847 28
2278 2846 2848 28
2279 2846 2849 28
2280 2846 2850 28
2281 2851 2852 28
2282 2851 2853 28
2283 2851 2854 28
2284 2851 2855 28
2285 2856 2857 28
2286 2856 2858 28
2287 2856 2859 28
2288 2856 2860 28
2289 2861 2862 28
2290 2861 2863 28
2291 2861 2864 28
2292 2861 2865 28
2293 2866 2867 28
2294 2866 2868 28
2295 2866 2869 28
2296 2866 2870 28
2297 2871 2872 28
2298 2871 2873 28
2299 2871 2874 28
2300 2871 2875 28
2301 2876 2877 28
2302 2876 2878 28
2303 2876 2879 28
2304 2876 2880 28
2305 2881 2882 28
2306 2881 2883 28
2307 2881 2884 28
2308 2881 2885 28
2309 2886 2887 28
2310 2886 2888 28
2311 2886 2889 28
2312 2886 2890 28
2313 2891 2892 28
2314 2891 2893 28
2315 2891 2894 28
2316 2891 2895 28
2317 2896 2897 28
2318 2896 2898 28
2319 2896 2899 28
2320 2896 2900 28
2321 2901 2902 28
2322 2901 2903 28
2323 2901 2904 28
2324 2901 2905 28
2325 2906 2907 28
2326 2906 2908 28
2327 2906 2909 28
2328 2906 2910 28
2329 2911 2912 28
2330 2911 2913 28
2331 2911 2914 28
2332 2911 2915 28
2333 2916 2917 28
2334 2916 2918 28
2335 2916 2919 28
2336 2916 2920 28
2337 2921 2922 28
2338 2921 2923 28
2339 2921 2924 28
2340 2921 2925 28
2341 2926 2927 28
2342 2926 2928 28
2343 2926 2929 28
2344 2926 2930 28
2345 2931 2932 28
2346 2931 2933 28
2347 2931 2934 28
2348 2931 2935 28
2349 2936 2937 28
2350 2936 2938 28
2351 2936 2939 28
2352 2936 2940 28
2353 2941 2942 28
2354 2941 2943 28
2355 2941 2944 28
2356 2941 2945 28
2357 2946 2947 28
2358 2946 2948 28
2359 2946 2949 28
2360 2946 2950 28
2361 2951 2952 28
2362 2951 2953 28
2363 2951 2954 28
2364 2951 2955 28
2365 2956 2957 28
2366 2956 2958 28
2367 2956 2959 28
2368 2956 2960 28
2369 2961 2962 28
2370 2961 2963 28
2371 2961 2964 28
2372 2961 2965 28
2373 2966 2967 28
2374 2966 2968 28
2375 2966 2969 28
2376 2966 2970 28
2377 2971 2972 28
2378 2971 2973 28
2379 2971 2974 28
2380 2971 2975 28
2381 2976 2977 28
2382 2976 2978 28
2383 2976 2979 28
2384 2976 2980 28
2385 2981 2982 28
2386 2981 2983 28
2387 2981 2984 28
2388 2981 2985 28
2389 2986 2987 28
2390 2986 2988 28
2391 2986 2989 28
2392 2986 2990 28
2393 2991 2992 28
2394 2991 2993 28
2395 2991 2994 28
2396 2991 2995 28
2397 2996 2997 28
2398 2996 2998 28
2399 2996 2999 28
2400 2996 3000 28
2401 3001 3002 28
2402 3001 3003 28
2403 3001 3004 28
2404 3001 3005 28
2405 3006 3007 28
2406 3006 3008 28
2407 3006 3009 28
2408 3006 3010 28
2409 3011 3012 28
2410 3011 3013 28
2411 3011 3014 28
2412 3011 3015 28
2413 3016 3017 28
2414 3016 3018 28
2415 3016 3019 28
2416 3016 3020 28
2417 3021 3022 28
2418 3021 3023 28
2419 3021 3024 28
2420 3021 3025 28
2421 3026 3027 28
2422 3026 3028 28
2423 3026 3029 28
2424 3026 3030 28
2425 3031 3032 28
2426 3031 3033 28
2427 3031 3034 28
2428 3031 3035 28
2429 3036 3037 28
2430 3036 3038 28
2431 3036 3039 28
2432 3036 3040 28
2433 3041 3042 28
2434 3041 3043 28
2435 3041 3044 28
2436 3041 3045 28
2437 3046 3047 28
2438 3046 3048 28
2439 3046 3049 28
2440 3046 3050 28
2441 3051 3052 28
2442 3051 3053 28
2443 3051 3054 28
2444 3051 3055 28
2445 3056 3057 28
2446 3056 3058 28
2447 3056 3059 28
2448 3056 3060 28
2449 3061 3062 28
2450 3061 3063 28
2451 3061 3064 28
2452 3061 3065 28
2453 3066 3067 28
2454 3066 3068 28
2455 3066 3069 28
2456 3066 3070 28
2457 3071 3072 28
2458 3071 3073 28
2459 3071 3074 28
2460 3071 3075 28
2461 3076 3077 28
2462 3076 3078 28
2463 3076 3079 28
2464 3076 3080 28
2465 3081 3082 28
2466 3081 3083 28
2467 3081 3084 28
2468 3081 3085 28
2469 3086 3087 28
2470 3086 3088 28
2471 3086 3089 28
2472 3086 3090 28
2473 3091 3092 28
2474 3091 3093 28
2475 3091 3094 28
2476 3091 3095 28
2477 3096 3097 28
2478 3096 3098 28
2479 3096 3099 28
2480 3096 3100 28
2481 3101 3102 28
2482 3101 3103 28
2483 3101 3104 28
2484 3101 3105 28
2485 3106 3107 28
2486 3106 3108 28
2487 3106 3109 28
2488 3106 3110 28
2489 3111 3112 28
2490 3111 3113 28
2491 3111 3114 28
2492 3111 3115 28
2493 3116 3117 28
2494 3116 3118 28
2495 3116 3119 28
2496 3116 3120 28
2497 3121 3122 28
2498 3121 3123 28
2499 3121 3124 28
2500 3121 3125 28
2501 3126 3127 28
2502 3126 3128 28
2503 3126 3129 28
2504 3126 3130 28
2505 3131 3132 28
2506 3131 3133 28
2507 3131 3134 28
2508 3131 3135 28
2509 3136 3137 28
2510 3136 3138 28
2511 3136 3139 28
2512 3136 3140 28
2513 3141 3142 28
2514 3141 3143 28
2515 3141 3144 28
2516 3141 3145 28
2517 3146 3147 28
2518 3146 3148 28
2519 3146 3149 28
2520 3146 3150 28
2521 3151 3152 28
2522 3151 3153 28
2523 3151 3154 28
2524 3151 3155 28
2525 3156 3157 28
2526 3156 3158 28
2527 3156 3159 28
2528 3156 3160 28
2529 3161 3162 28
2530 3161 3163 28
2531 3161 3164 28
2532 3161 3165 28
2533 3166 3167 28
2534 3166 3168 28
2535 3166 3169 28
2536 3166 3170 28
2537 3171 3172 28
2538 3171 3173 28
2539 3171 3174 28
2540 3171 3175 28
2541 3176 3177 28
2542 3176 3178 28
2543 3176 3179 28
2544 3176 3180 28
2545 3181 3182 28
2546 3181 3183 28
2547 3181 3184 28
2548 3181 3185 28
2549 3186 3187 28
2550 3186 3188 28
2551 3186 3189 28
2552 3186 3190 28
2553 3191 3192 28
2554 3191 3193 28
2555 3191 3194 28
2556 3191 3195 28
2557 3196 3197 28
2558 3196 3198 28
2559 3196 3199 28
2560 3196 3200 28
2561 3201 3202 28
2562 3201 3203 28
2563 3201 3204 28
2564 3201 3205 28
2565 3206 3207 28
2566 3206 3208 28
2567 3206 3209 28
2568 3206 3210 28
2569 3211 3212 28
2570 3211 3213 28
2571 3211 3214 28
2572 3211 3215 28
2573 3216 3217 28
2574 3216 3218 28
2575 3216 3219 28
2576 3216 3220 28
2577 3221 3222 28
2578 3221 3223 28
2579 3221 3224 28
2580 3221 3225 28
2581 3226 3227 28
2582 3226 3228 28
2583 3226 3229 28
2584 3226 3230 28
2585 3231 3232 28
2586 3231 3233 28
2587 3231 3234 28
2588 3231 3235 28
2589 3236 3237 28
2590 3236 3238 28
2591 3236 3239 28
2592 3236 3240 28
2593 3241 3242 28
2594 3241 3243 28
2595 3241 3244 28
2596 3241 3245 28
2597 3246 3247 28
2598 3246 3248 28
2599 3246 3249 28
2600 3246 3250 28
2601 3251 3252 28
2602 3251 3253 28
2603 3251 3254 28
2604 3251 3255 28
2605 3256 3257 28
2606 3256 3258 28
2607 3256 3259 28
2608 3256 3260 28
2609 3261 3262 28
2610 3261 3263 28
2611 3261 3264 28
2612 3261 3265 28
2613 3266 3267 28
2614 3266 3268 28
2615 3266 3269 28
2616 3266 3270 28
2617 3271 3272 28
2618 3271 3273 28
2619 3271 3274 28
2620 3271 3275 28
2621 3276 3277 28
2622 3276 3278 28
2623 3276 3279 28
2624 3276 3280 28
2625 3281 3282 28
2626 3281 3283 28
2627 3281 3284 28
2628 3281 3285 28
2629 3286 3287 28
2630 3286 3288 28
2631 3286 3289 28
2632 3286 3290 28
2633 3291 3292 28
2634 3291 3293 28
2635 3291 3294 28
2636 3291 3295 28
2637 3296 3297 28
2638 3296 3298 28
2639 3296 3299 28
2640 3296 3300 28
2641 3301 3302 28
2642 3301 3303 28
2643 3301 3304 28
2644 3301 3305 28
2645 3306 3307 28
2646 3306 3308 28
2647 3306 3309 28
2648 3306 3310 28
2649 3311 3312 28
2650 3311 3313 28
2651 3311 3314 28
2652 3311 3315 28
2653 3316 3317 28
2654 3316 3318 28
2655 3316 3319 28
2656 3316 3320 28
2657 3321 3322 28
2658 3321 3323 28
2659 3321 3324 28
2660 3321 3325 28
2661 3326 3327 28
2662 3326 3328 28
2663 3326 3329 28
2664 3326 3330 28
2665 3331 3332 28
2666 3331 3333 28
2667 3331 3334 28
2668 3331 3335 28
2669 3336 3337 28
2670 3336 3338 28
2671 3336 3339 28
2672 3336 3340 28
2673 3341 3342 28
2674 3341 3343 28
2675 3341 3344 28
2676 3341 3345 28
2677 3346 3347 28
2678 3346 3348 28
2679 3346 3349 28
2680 3346 3350 28
2681 3351 3352 28
2682 3351 3353 28
2683 3351 3354 28
2684 3351 3355 28
2685 3356 3357 28
2686 3356 3358 28
2687 3356 3359 28
2688 3356 3360 28
2689 3361 3362 28
2690 3361 3363 28
2691 3361 3364 28
2692 3361 3365 28
2693 3366 3367 28
2694 3366 3368 28
2695 3366 3369 28
2696 3366 3370 28
2697 3371 3372 28
2698 3371 3373 28
2699 3371 3374 28
2700 3371 3375 28
2701 3376 3377 28
2702 3376 3378 28
2703 3376 3379 28
2704 3376 3380 28
2705 3381 3382 28
2706 3381 3383 28
2707 3381 3384 28
2708 3381 3385 28
2709 3386 3387 28
2710 3386 3388 28
2711 3386 3389 28
2712 3386 3390 28
2713 3391 3392 28
2714 3391 3393 28
2715 3391 3394 28
2716 3391 3395 28
2717 3396 3397 28
2718 3396 3398 28
2719 3396 3399 28
2720 3396 3400 28
2721 3401 3402 28
2722 3401 3403 28
2723 3401 3404 28
2724 3401 3405 28
2725 3406 3407 28
2726 3406 3408 28
2727 3406 3409 28
2728 3406 3410 28
2729 3411 3412 28
2730 3411 3413 28
2731 3411 3414 28
2732 3411 3415 28
2733 3416 3417 28
2734 3416 3418 28
2735 3416 3419 28
2736 3416 3420 28
2737 3421 3422 28
2738 3421 3423 28
2739 3421 3424 28
2740 3421 3425 28
2741 3426 3427 28
2742 3426 3428 28
2743 3426 3429 28
2744 3426 3430 28
2745 3431 3432 28
2746 3431 3433 28
2747 3431 3434 28
2748 3431 3435 28
2749 3436 3437 28
2750 3436 3438 28
2751 3436 3439 28
2752 3436 3440 28
2753 3441 3442 28
2754 3441 3443 28
2755 3441 3444 28
2756 3441 3445 28
2757 3446 3447 28
2758 3446 3448 28
2759 3446 3449 28
2760 3446 3450 28
2761 3451 3452 28
2762 3451 3453 28
2763 3451 3454 28
2764 3451 3455 28
2765 3456 3457 28
2766 3456 3458 28
2767 3456 3459 28
2768 3456 3460 28
2769 3461 3462 28
2770 3461 3463 28
2771 3461 3464 28
2772 3461 3465 28
2773 3466 3467 28
2774 3466 3468 28
2775 3466 3469 28
2776 3466 3470 28
2777 3471 3472 28
2778 3471 3473 28
2779 3471 3474 28
2780 3471 3475 28
2781 3476 3477 28
2782 3476 3478 28
2783 3476 3479 28
2784 3476 3480 28
2785 3481 3482 28
2786 3481 3483 28
2787 3481 3484 28
2788 3481 3485 28
2789 3486 3487 28
2790 3486 3488 28
2791 3486 3489 28
2792 3486 3490 28
2793 3491 3492 28
2794 3491 3493 28
2795 3491 3494 28
2796 3491 3495 28
2797 3496 3497 28
2798 3496 3498 28
2799 3496 3499 28
2800 3496 3500 28
2801 3501 3502 28
2802 3501 3503 28
2803 3501 3504 28
2804 3501 3505 28
2805 3506 3507 28
2806 3506 3508 28
2807 3506 3509 28
2808 3506 3510 28
2809 3511 3512 28
2810 3511 3513 28
2811 3511 3514 28
2812 3511 3515 28
2813 3516 3517 28
2814 3516 3518 28
2815 3516 3519 28
2816 3516 3520 28
2817 3521 3522 28
2818 3521 3523 28
2819 3521 3524 28
2820 3521 3525 28
2821 3526 3527 28
2822 3526 3528 28
2823 3526 3529 28
2824 3526 3530 28
2825 3531 3532 28
2826 3531 3533 28
2827 3531 3534 28
2828 3531 3535 28
2829 3536 3537 28
2830 3536 3538 28
2831 3536 3539 28
2832 3536 3540 28
2833 3541 3542 28
2834 3541 3543 28
2835 3541 3544 28
2836 3541 3545 28
2837 3546 3547 28
2838 3546 3548 28
2839 3546 3549 28
2840 3546 3550 28
2841 3551 3552 28
2842 3551 3553 28
2843 3551 3554 28
2844 3551 3555 28
2845 3556 3557 28
2846 3556 3558 28
2847 3556 3559 28
2848 3556 3560 28
2849 3561 3562 28
2850 3561 3563 28
2851 3561 3564 28
2852 3561 3565 28
2853 3566 3567 28
2854 3566 3568 28
2855 3566 3569 28
2856 3566 3570 28
2857 3571 3572 28
2858 3571 3573 28
2859 3571 3574 28
2860 3571 3575 28
2861 3576 3577 28
2862 3576 3578 28
2863 3576 3579 28
2864 3576 3580 28
2865 3581 3582 28
2866 3581 3583 28
2867 3581 3584 28
2868 3581 3585 28
2869 3586 3587 28
2870 3586 3588 28
2871 3586 3589 28
2872 3586 3590 28
2873 3591 3592 28
2874 3591 3593 28
2875 3591 3594 28
2876 3591 3595 28
2877 3596 3597 28
2878 3596 3598 28
2879 3596 3599 28
2880 3596 3600 28
2881 3601 3602 28
2882 3601 3603 28
2883 3601 3604 28
2884 3601 3605 28
2885 3606 3607 28
2886 3606 3608 28
2887 3606 3609 28
2888 3606 3610 28
2889 3611 3612 28
2890 3611 3613 28
2891 3611 3614 28
2892 3611 3615 28
2893 3616 3617 28
2894 3616 3618 28
2895 3616 3619 28
2896 3616 3620 28
2897 3621 3622 28
2898 3621 3623 28
2899 3621 3624 28
2900 3621 3625 28
2901 3626 3627 28
2902 3626 3628 28
2903 3626 3629 28
2904 3626 3630 28
2905 3631 3632 28
2906 3631 3633 28
2907 3631 3634 28
2908 3631 3635 28
2909 3636 3637 28
2910 3636 3638 28
2911 3636 3639 28
2912 3636 3640 28
2913 3641 3642 28
2914 3641 3643 28
2915 3641 3644 28
2916 3641 3645 28
2917 3646 3647 28
2918 3646 3648 28
2919 3646 3649 28
2920 3646 3650 28
2921 3651 3652 28
2922 3651 3653 28
2923 3651 3654 28
2924 3651 3655 28
2925 3656 3657 28
2926 3656 3658 28
2927 3656 3659 28
2928 3656 3660 28
2929 3661 3662 28
2930 3661 3663 28
2931 3661 3664 28
2932 3661 3665 28
2933 3666 3667 28
2934 3666 3668 28
2935 3666 3669 28
2936 3666 3670 28
2937 3671 3672 28
2938 3671 3673 28
2939 3671 3674 28
2940 3671 3675 28
2941 3676 3677 28
2942 3676 3678 28
2943 3676 3679 28
2944 3676 3680 28
2945 3681 3682 28
2946 3681 3683 28
2947 3681 3684 28
2948 3681 3685 28
2949 3686 3687 28
2950 3686 3688 28
2951 3686 3689 28
2952 3686 3690 28
2953 3691 3692 28
2954 3691 3693 28
2955 3691 3694 28
2956 3691 3695 28
2957 3696 3697 28
2958 3696 3698 28
2959 3696 3699 28
2960 3696 3700 28
2961 3701 3702 28
2962 3701 3703 28
2963 3701 3704 28
2964 3701 3705 28
2965 3706 3707 28
2966 3706 3708 28
2967 3706 3709 28
2968 3706 3710 28
2969 3711 3712 28
2970 3711 3713 28
2971 3711 3714 28
2972 3711 3715 28
2973 3716 3717 28
2974 3716 3718 28
2975 3716 3719 28
2976 3716 3720 28
2977 3721 3722 28
2978 3721 3723 28
2979 3721 3724 28
2980 3721 3725 28
2981 3726 3727 28
2982 3726 3728 28
2983 3726 3729 28
2984 3726 3730 28
2985 3731 3732 28
2986 3731 3733 28
2987 3731 3734 28
2988 3731 3735 28
2989 3736 3737 28
2990 3736 3738 28
2991 3736 3739 28
2992 3736 3740 28
2993 3741 3742 28
2994 3741 3743 28
2995 3741 3744 28
2996 3741 3745 28
2997 3746 3747 28
2998 3746 3748 28
2999 3746 3749 28
3000 3746 3750 28
3001 3751 3752 28
3002 3751 3753 28
3003 3751 3754 28
3004 3751 3755 28
3005 3756 3757 28
3006 3756 3758 28
3007 3756 3759 28
3008 3756 3760 28
3009 3761 3762 28
3010 3761 3763 28
3011 3761 3764 28
3012 3761 3765 28
3013 3766 3767 28
3014 3766 3768 28
3015 3766 3769 28
3016 3766 3770 28
3017 3771 3772 28
3018 3771 3773 28
3019 3771 3774 28
3020 3771 3775 28
3021 3776 3777 28
3022 3776 3778 28
3023 3776 3779 28
3024 3776 3780 28
3025 3781 3782 28
3026 3781 3783 28
3027 3781 3784 28
3028 3781 3785 28
3029 3786 3787 28
3030 3786 3788 28
3031 3786 3789 28
3032 3786 3790 28
3033 3791 3792 28
3034 3791 3793 28
3035 3791 3794 28
3036 3791 3795 28
3037 3796 3797 28
3038 3796 3798 28
3039 3796 3799 28
3040 3796 3800 28
3041 3801 3802 28
3042 3801 3803 28
3043 3801 3804 28
3044 3801 3805 28
3045 3806 3807 28
3046 3806 3808 28
3047 3806 3809 28
3048 3806 3810 28
3049 3811 3812 28
3050 3811 3813 28
3051 3811 3814 28
3052 3811 3815 28
3053 3816 3817 28
3054 3816 3818 28
3055 3816 3819 28
3056 3816 3820 28
3057 3821 3822 28
3058 3821 3823 28
3059 3821 3824 28
3060 3821 3825 28
3061 3826 3827 28
3062 3826 3828 28
3063 3826 3829 28
3064 3826 3830 28
3065 3831 3832 28
3066 3831 3833 28
3067 3831 3834 28
3068 3831 3835 28
3069 3836 3837 28
3070 3836 3838 28
3071 3836 3839 28
3072 3836 3840 28
3073 3841 3842 28
3074 3841 3843 28
3075 3841 3844 28
3076 3841 3845 28
3077 3846 3847 28
3078 3846 3848 28
3079 3846 3849 28
3080 3846 3850 28
3081 3851 3852 28
3082 3851 3853 28
3083 3851 3854 28
3084 3851 3855 28
3085 3856 3857 28
3086 3856 3858 28
3087 3856 3859 28
3088 3856 3860 28
3089 3861 3862 28
3090 3861 3863 28
3091 3861 3864 28
3092 3861 3865 28
3093 3866 3867 28
3094 3866 3868 28
3095 3866 3869 28
3096 3866 3870 28
3097 3871 3872 28
3098 3871 3873 28
3099 3871 3874 28
3100 3871 3875 28
3101 3876 3877 28
3102 3876 3878 28
3103 3876 3879 28
3104 3876 3880 28
3105 3881 3882 28
3106 3881 3883 28
3107 3881 3884 28
3108 3881 3885 28
3109 3886 3887 28
3110 3886 3888 28
3111 3886 3889 28
3112 3886 3890 28
3113 3891 3892 28
3114 3891 3893 28
3115 3891 3894 28
3116 3891 3895 28
3117 3896 3897 28
3118 3896 3898 28
3119 3896 3899 28
3120 3896 3900 28
3121 3901 3902 28
3122 3901 3903 28
3123 3901 3904 28
3124 3901 3905 28
3125 3906 3907 28
3126 3906 3908 28
3127 3906 3909 28
3128 3906 3910 28
3129 3911 3912 28
3130 3911 3913 28
3131 3911 3914 28
3132 3911 3915 28
3133 3916 3917 28
3134 3916 3918 28
3135 3916 3919 28
3136 3916 3920 28
3137 3921 3922 28
3138 3921 3923 28
3139 3921 3924 28
3140 3921 3925 28
3141 3926 3927 28
3142 3926 3928 28
3143 3926 3929 28
3144 3926 3930 28
3145 3931 3932 28
3146 3931 3933 28
3147 3931 3934 28
3148 3931 3935 28
3149 3936 3937 28
3150 3936 3938 28
3151 3936 3939 28
3152 3936 3940 28
3153 3941 3942 28
3154 3941 3943 28
3155 3941 3944 28
3156 3941 3945 28
3157 3946 3947 28
3158 3946 3948 28
3159 3946 3949 28
3160 3946 3950 28
3161 3951 3952 28
3162 3951 3953 28
3163 3951 3954 28
3164 3951 3955 28
3165 3956 3957 28
3166 3956 3958 28
3167 3956 3959 28
3168 3956 3960 28
3169 3961 3962 28
3170 3961 3963 28
3171 3961 3964 28
3172 3961 3965 28
3173 3966 3967 28
3174 3966 3968 28
3175 3966 3969 28
3176 3966 3970 28
3177 3971 3972 28
3178 3971 3973 28
3179 3971 3974 28
3180 3971 3975 28
3181 3976 3977 28
3182 3976 3978 28
3183 3976 3979 28
3184 3976 3980 28
3185 3981 3982 28
3186 3981 3983 28
3187 3981 3984 28
3188 3981 3985 28
3189 3986 3987 28
3190 3986 3988 28
3191 3986 3989 28
3192 3986 3990 28
3193 3991 3992 28
3194 3991 3993 28
3195 3991 3994 28
3196 3991 3995 28
3197 3996 3997 28
3198 3996 3998 28
3199 3996 3999 28
3200 3996 4000 28
3201 4001 4002 28
3202 4001 4003 28
3203 4001 4004 28
3204 4001 4005 28
3205 4006 4007 28
3206 4006 4008 28
3207 4006 4009 28
3208 4006 4010 28
3209 4011 4012 28
3210 4011 4013 28
3211 4011 4014 28
3212 4011 4015 28
3213 4016 4017 28
3214 4016 4018 28
3215 4016 4019 28
3216 4016 4020 28
3217 4021 4022 28
3218 4021 4023 28
3219 4021 4024 28
3220 4021 4025 28
3221 4026 4027 28
3222 4026 4028 28
3223 4026 4029 28
3224 4026 4030 28
3225 4031 4032 28
3226 4031 4033 28
3227 4031 4034 28
3228 4031 4035 28
3229 4036 4037 28
3230 4036 4038 28
3231 4036 4039 28
3232 4036 4040 28
3233 4041 4042 28
3234 4041 4043 28
3235 4041 4044 28
3236 4041 4045 28
3237 4046 4047 28
3238 4046 4048 28
3239 4046 4049 28
3240 4046 4050 28
3241 4051 4052 28
3242 4051 4053 28
3243 4051 4054 28
3244 4051 4055 28
3245 4056 4057 28
3246 4056 4058 28
3247 4056 4059 28
3248 4056 4060 28
3249 4061 4062 28
3250 4061 4063 28
3251 4061 4064 28
3252 4061 4065 28
3253 4066 4067 28
3254 4066 4068 28
3255 4066 4069 28
3256 4066 4070 28
3257 4071 4072 28
3258 4071 4073 28
3259 4071 4074 28
3260 4071 4075 28
3261 4076 4077 28
3262 4076 4078 28
3263 4076 4079 28
3264 4076 4080 28
3265 4081 4082 28
3266 4081 4083 28
3267 4081 4084 28
3268 4081 4085 28
3269 4086 4087 28
3270 4086 4088 28
3271 4086 4089 28
3272 4086 4090 28
3273 4091 4092 28
3274 4091 4093 28
3275 4091 4094 28
3276 4091 4095 28
3277 4096 4097 28
3278 4096 4098 28
3279 4096 4099 28
3280 4096 4100 28
3281 4101 4102 28
3282 4101 4103 28
3283 4101 4104 28
3284 4101 4105 28
3285 4106 4107 28
3286 4106 4108 28
3287 4106 4109 28
3288 4106 4110 28
3289 4111 4112 28
3290 4111 4113 28
3291 4111 4114 28
3292 4111 4115 28
3293 4116 4117 28
3294 4116 4118 28
3295 4116 4119 28
3296 4116 4120 28
3297 4121 4122 28
3298 4121 4123 28
3299 4121 4124 28
3300 4121 4125 28
3301 4126 4127 28
3302 4126 4128 28
3303 4126 4129 28
3304 4126 4130 28
3305 4131 4132 28
3306 4131 4133 28
3307 4131 4134 28
3308 4131 4135 28
3309 4136 4137 28
3310 4136 4138 28
3311 4136 4139 28
3312 4136 4140 28
3313 4141 4142 28
3314 4141 4143 28
3315 4141 4144 28
3316 4141 4145 28
3317 4146 4147 28
3318 4146 4148 28
3319 4146 4149 28
3320 4146 4150 28
3321 4151 4152 28
3322 4151 4153 28
3323 4151 4154 28
3324 4151 4155 28
3325 4156 4157 28
3326 4156 4158 28
3327 4156 4159 28
3328 4156 4160 28
3329 4161 4162 28
3330 4161 4163 28
3331 4161 4164 28
3332 4161 4165 28
3333 4166 4167 28
3334 4166 4168 28
3335 4166 4169 28
3336 4166 4170 28
3337 4171 4172 28
3338 4171 4173 28
3339 4171 4174 28
3340 4171 4175 28
3341 4176 4177 28
3342 4176 4178 28
3343 4176 4179 28
3344 4176 4180 28
3345 4181 4182 28
3346 4181 4183 28
3347 4181 4184 28
3348 4181 4185 28
3349 4186 4187 28
3350 4186 4188 28
3351 4186 4189 28
3352 4186 4190 28
3353 4191 4192 28
3354 4191 4193 28
3355 4191 4194 28
3356 4191 4195 28
3357 4196 4197 28
3358 4196 4198 28
3359 4196 4199 28
3360 4196 4200 28
3361 4201 4202 28
3362 4201 4203 28
3363 4201 4204 28
3364 4201 4205 28
3365 4206 4207 28
3366 4206 4208 28
3367 4206 4209 28
3368 4206 4210 28
3369 4211 4212 28
3370 4211 4213 28
3371 4211 4214 28
3372 4211 4215 28
3373 4216 4217 28
3374 4216 4218 28
3375 4216 4219 28
3376 4216 4220 28
3377 4221 4222 28
3378 4221 4223 28
3379 4221 4224 28
3380 4221 4225 28
3381 4226 4227 28
3382 4226 4228 28
3383 4226 4229 28
3384 4226 4230 28
3385 4231 4232 28
3386 4231 4233 28
3387 4231 4234 28
3388 4231 4235 28
3389 4236 4237 28
3390 4236 4238 28
3391 4236 4239 28
3392 4236 4240 28
3393 4241 4242 28
3394 4241 4243 28
3395 4241 4244 28
3396 4241 4245 28
3397 4246 4247 28
3398 4246 4248 28
3399 4246 4249 28
3400 4246 4250 28
3401 4251 4252 28
3402 4251 4253 28
3403 4251 4254 28
3404 4251 4255 28
3405 4256 4257 28
3406 4256 4258 28
3407 4256 4259 28
3408 4256 4260 28
3409 4261 4262 28
3410 4261 4263 28
3411 4261 4264 28
3412 4261 4265 28
3413 4266 4267 28
3414 4266 4268 28
3415 4266 4269 28
3416 4266 4270 28
3417 4271 4272 28
3418 4271 4273 28
3419 4271 4274 28
3420 4271 4275 28
3421 4276 4277 28
3422 4276 4278 28
3423 4276 4279 28
3424 4276 4280 28
3425 4281 4282 28
3426 4281 4283 28
3427 4281 4284 28
3428 4281 4285 28
3429 4286 4287 28
3430 4286 4288 28
3431 4286 4289 28
3432 4286 4290 28
3433 4291 4292 28
3434 4291 4293 28
3435 4291 4294 28
3436 4291 4295 28
3437 4296 4297 28
3438 4296 4298 28
3439 4296 4299 28
3440 4296 4300 28
3441 4301 4302 28
3442 4301 4303 28
3443 4301 4304 28
3444 4301 4305 28
3445 4306 4307 28
3446 4306 4308 28
3447 4306 4309 28
3448 4306 4310 28
3449 4311 4312 28
3450 4311 4313 28
3451 4311 4314 28
3452 4311 4315 28
3453 4316 4317 28
3454 4316 4318 28
3455 4316 4319 28
3456 4316 4320 28
3457 4321 4322 28
3458 4321 4323 28
3459 4321 4324 28
3460 4321 4325 28
3461 4326 4327 28
3462 4326 4328 28
3463 4326 4329 28
3464 4326 4330 28
3465 4331 4332 28
3466 4331 4333 28
3467 4331 4334 28
3468 4331 4335 28
3469 4336 4337 28
3470 4336 4338 28
3471 4336 4339 28
3472 4336 4340 28
3473 4341 4342 28
3474 4341 4343 28
3475 4341 4344 28
3476 4341 4345 28
3477 4346 4347 28
3478 4346 4348 28
3479 4346 4349 28
3480 4346 4350 28
3481 4351 4352 28
3482 4351 4353 28
3483 4351 4354 28
3484 4351 4355 28
3485 4356 4357 28
3486 4356 4358 28
3487 4356 4359 28
3488 4356 4360 28
3489 4361 4362 28
3490 4361 4363 28
3491 4361 4364 28
3492 4361 4365 28
3493 4366 4367 28
3494 4366 4368 28
3495 4366 4369 28
3496 4366 4370 28
3497 4371 4372 28
3498 4371 4373 28
3499 4371 4374 28
3500 4371 4375 28
3501 4376 4377 28
3502 4376 4378 28
3503 4376 4379 28
3504 4376 4380 28
3505 4381 4382 28
3506 4381 4383 28
3507 4381 4384 28
3508 4381 4385 28
3509 4386 4387 28
3510 4386 4388 28
3511 4386 4389 28
3512 4386 4390 28
3513 4391 4392 28
3514 4391 4393 28
3515 4391 4394 28
3516 4391 4395 28
3517 4396 4397 28
3518 4396 4398 28
3519 4396 4399 28
3520 4396 4400 28
3521 4401 4402 28
3522 4401 4403 28
3523 4401 4404 28
3524 4401 4405 28
3525 4406 4407 28
3526 4406 4408 28
3527 4406 4409 28
3528 4406 4410 28
3529 4411 4412 28
3530 4411 4413 28
3531 4411 4414 28
3532 4411 4415 28
3533 4416 4417 28
3534 4416 4418 28
3535 4416 4419 28
3536 4416 4420 28
3537 4421 4422 28
3538 4421 4423 28
3539 4421 4424 28
3540 4421 4425 28
3541 4426 4427 28
3542 4426 4428 28
3543 4426 4429 28
3544 4426 4430 28
3545 4431 4432 28
3546 4431 4433 28
3547 4431 4434 28
3548 4431 4435 28
3549 4436 4437 28
3550 4436 4438 28
3551 4436 4439 28
3552 4436 4440 28
3553 4441 4442 28
3554 4441 4443 28
3555 4441 4444 28
3556 4441 4445 28
3557 4446 4447 28
3558 4446 4448 28
3559 4446 4449 28
3560 4446 4450 28
3561 4451 4452 28
3562 4451 4453 28
3563 4451 4454 28
3564 4451 4455 28
3565 4456 4457 28
3566 4456 4458 28
3567 4456 4459 28
3568 4456 4460 28
3569 4461 4462 28
3570 4461 4463 28
3571 4461 4464 28
3572 4461 4465 28
3573 4466 4467 28
3574 4466 4468 28
3575 4466 4469 28
3576 4466 4470 28
3577 4471 4472 28
3578 4471 4473 28
3579 4471 4474 28
3580 4471 4475 28
3581 4476 4477 28
3582 4476 4478 28
3583 4476 4479 28
3584 4476 4480 28
3585 4481 4482 28
3586 4481 4483 28
3587 4481 4484 28
3588 4481 4485 28
3589 4486 4487 28
3590 4486 4488 28
3591 4486 4489 28
3592 4486 4490 28
3593 4491 4492 28
3594 4491 4493 28
3595 4491 4494 28
3596 4491 4495 28
3597 4496 4497 28
3598 4496 4498 28
3599 4496 4499 28
3600 4496 4500 28
3601 4501 4502 28
3602 4501 4503 28
3603 4501 4504 28
3604 4501 4505 28
3605 4506 4507 28
3606 4506 4508 28
3607 4506 4509 28
3608 4506 4510 28
3609 4511 4512 28
3610 4511 4513 28
3611 4511 4514 28
3612 4511 4515 28
3613 4516 4517 28
3614 4516 4518 28
3615 4516 4519 28
3616 4516 4520 28
3617 4521 4522 28
3618 4521 4523 28
3619 4521 4524 28
3620 4521 4525 28
3621 4526 4527 28
3622 4526 4528 28
3623 4526 4529 28
3624 4526 4530 28
3625 4531 4532 28
3626 4531 4533 28
3627 4531 4534 28
3628 4531 4535 28
3629 4536 4537 28
3630 4536 4538 28
3631 4536 4539 28
3632 4536 4540 28
3633 4541 4542 28
3634 4541 4543 28
3635 4541 4544 28
3636 4541 4545 28
3637 4546 4547 28
3638 4546 4548 28
3639 4546 4549 28
3640 4546 4550 28
3641 4551 4552 28
3642 4551 4553 28
3643 4551 4554 28
3644 4551 4555 28
3645 4556 4557 28
3646 4556 4558 28
3647 4556 4559 28
3648 4556 4560 28
3649 4561 4562 28
3650 4561 4563 28
3651 4561 4564 28
3652 4561 4565 28
3653 4566 4567 28
3654 4566 4568 28
3655 4566 4569 28
3656 4566 4570 28
3657 4571 4572 28
3658 4571 4573 28
3659 4571 4574 28
3660 4571 4575 28
3661 4576 4577 28
3662 4576 4578 28
3663 4576 4579 28
3664 4576 4580 28
3665 4581 4582 28
3666 4581 4583 28
3667 4581 4584 28
3668 4581 4585 28
3669 4586 4587 28
3670 4586 4588 28
3671 4586 4589 28
3672 4586 4590 28
3673 4591 4592 28
3674 4591 4593 28
3675 4591 4594 28
3676 4591 4595 28
3677 4596 4597 28
3678 4596 4598 28
3679 4596 4599 28
3680 4596 4600 28
3681 4601 4602 28
3682 4601 4603 28
3683 4601 4604 28
3684 4601 4605 28
3685 4606 4607 28
3686 4606 4608 28
3687 4606 4609 28
3688 4606 4610 28
3689 4611 4612 28
3690 4611 4613 28
3691 4611 4614 28
3692 4611 4615 28
3693 4616 4617 28
3694 4616 4618 28
3695 4616 4619 28
3696 4616 4620 28
3697 4621 4622 28
3698 4621 4623 28
3699 4621 4624 28
3700 4621 4625 28
3701 4626 4627 28
3702 4626 4628 28
3703 4626 4629 28
3704 4626 4630 28
3705 4631 4632 28
3706 4631 4633 28
3707 4631 4634 28
3708 4631 4635 28
3709 4636 4637 28
3710 4636 4638 28
3711 4636 4639 28
3712 4636 4640 28
3713 4641 4642 28
3714 4641 4643 28
3715 4641 4644 28
3716 4641 4645 28
3717 4646 4647 28
3718 4646 4648 28
3719 4646 4649 28
3720 4646 4650 28
3721 4651 4652 28
3722 4651 4653 28
3723 4651 4654 28
3724 4651 4655 28
3725 4656 4657 28
3726 4656 4658 28
3727 4656 4659 28
3728 4656 4660 28
3729 4661 4662 28
3730 4661 4663 28
3731 4661 4664 28
3732 4661 4665 28
3733 4666 4667 28
3734 4666 4668 28
3735 4666 4669 28
3736 4666 4670 28
3737 4671 4672 28
3738 4671 4673 28
3739 4671 4674 28
3740 4671 4675 28
3741 4676 4677 28
3742 4676 4678 28
3743 4676 4679 28
3744 4676 4680 28
3745 4681 4682 28
3746 4681 4683 28
3747 4681 4684 28
3748 4681 4685 28
3749 4686 4687 28
3750 4686 4688 28
3751 4686 4689 28
3752 4686 4690 28
3753 4691 4692 28
3754 4691 4693 28
3755 4691 4694 28
3756 4691 4695 28
3757 4696 4697 28
3758 4696 4698 28
3759 4696 4699 28
3760 4696 4700 28
3761 4701 4702 28
3762 4701 4703 28
3763 4701 4704 28
3764 4701 4705 28
3765 4706 4707 28
3766 4706 4708 28
3767 4706 4709 28
3768 4706 4710 28
3769 4711 4712 28
3770 4711 4713 28
3771 4711 4714 28
3772 4711 4715 28
3773 4716 4717 28
3774 4716 4718 28
3775 4716 4719 28
3776 4716 4720 28
3777 4721 4722 28
3778 4721 4723 28
3779 4721 4724 28
3780 4721 4725 28
3781 4726 4727 28
3782 4726 4728 28
3783 4726 4729 28
3784 4726 4730 28
3785 4731 4732 28
3786 4731 4733 28
3787 4731 4734 28
3788 4731 4735 28
3789 4736 4737 28
3790 4736 4738 28
3791 4736 4739 28
3792 4736 4740 28
3793 4741 4742 28
3794 4741 4743 28
3795 4741 4744 28
3796 4741 4745 28
3797 4746 4747 28
3798 4746 4748 28
3799 4746 4749 28
3800 4746 4750 28
3801 4751 4752 28
3802 4751 4753 28
3803 4751 4754 28
3804 4751 4755 28
3805 4756 4757 28
3806 4756 4758 28
3807 4756 4759 28
3808 4756 4760 28
3809 4761 4762 28
3810 4761 4763 28
3811 4761 4764 28
3812 4761 4765 28
3813 4766 4767 28
3814 4766 4768 28
3815 4766 4769 28
3816 4766 4770 28
3817 4771 4772 28
3818 4771 4773 28
3819 4771 4774 28
3820 4771 4775 28
3821 4776 4777 28
3822 4776 4778 28
3823 4776 4779 28
3824 4776 4780 28
3825 4781 4782 28
3826 4781 4783 28
3827 4781 4784 28
3828 4781 4785 28
3829 4786 4787 28
3830 4786 4788 28
3831 4786 4789 28
3832 4786 4790 28
3833 4791 4792 28
3834 4791 4793 28
3835 4791 4794 28
3836 4791 4795 28
3837 4796 4797 28
3838 4796 4798 28
3839 4796 4799 28
3840 4796 4800 28
3841 4801 4802 28
3842 4801 4803 28
3843 4801 4804 28
3844 4801 4805 28
3845 4806 4807 28
3846 4806 4808 28
3847 4806 4809 28
3848 4806 4810 28
3849 4811 4812 28
3850 4811 4813 28
3851 4811 4814 28
3852 4811 4815 28
3853 4816 4817 28
3854 4816 4818 28
3855 4816 4819 28
3856 4816 4820 28
3857 4821 4822 28
3858 4821 4823 28
3859 4821 4824 28
3860 4821 4825 28
3861 4826 4827 28
3862 4826 4828 28
3863 4826 4829 28
3864 4826 4830 28
3865 4831 4832 28
3866 4831 4833 28
3867 4831 4834 28
3868 4831 4835 28
3869 4836 4837 28
3870 4836 4838 28
3871 4836 4839 28
3872 4836 4840 28
3873 4841 4842 28
3874 4841 4843 28
3875 4841 4844 28
3876 4841 4845 28
3877 4846 4847 28
3878 4846 4848 28
3879 4846 4849 28
3880 4846 4850 28
3881 4851 4852 28
3882 4851 4853 28
3883 4851 4854 28
3884 4851 4855 28
3885 4856 4857 28
3886 4856 4858 28
3887 4856 4859 28
3888 4856 4860 28
3889 4861 4862 28
3890 4861 4863 28
3891 4861 4864 28
3892 4861 4865 28
3893 4866 4867 28
3894 4866 4868 28
3895 4866 4869 28
3896 4866 4870 28
3897 4871 4872 28
3898 4871 4873 28
3899 4871 4874 28
3900 4871 4875 28
3901 4876 4877 28
3902 4876 4878 28
3903 4876 4879 28
3904 4876 4880 28
3905 4881 4882 28
3906 4881 4883 28
3907 4881 4884 28
3908 4881 4885 28
3909 4886 4887 28
3910 4886 4888 28
3911 4886 4889 28
3912 4886 4890 28
3913 4891 4892 28
3914 4891 4893 28
3915 4891 4894 28
3916 4891 4895 28
3917 4896 4897 28
3918 4896 4898 28
3919 4896 4899 28
3920 4896 4900 28
3921 4901 4902 28
3922 4901 4903 28
3923 4901 4904 28
3924 4901 4905 28
3925 4906 4907 28
3926 4906 4908 28
3927 4906 4909 28
3928 4906 4910 28
3929 4911 4912 28
3930 4911 4913 28
3931 4911 4914 28
3932 4911 4915 28
3933 4916 4917 28
3934 4916 4918 28
3935 4916 4919 28
3936 4916 4920 28
3937 4921 4922 28
3938 4921 4923 28
3939 4921 4924 28
3940 4921 4925 28
3941 4926 4927 28
3942 4926 4928 28
3943 4926 4929 28
3944 4926 4930 28
3945 4931 4932 28
3946 4931 4933 28
3947 4931 4934 28
3948 4931 4935 28
3949 4936 4937 28
3950 4936 4938 28
3951 4936 4939 28
3952 4936 4940 28
3953 4941 4942 28
3954 4941 4943 28
3955 4941 4944 28
3956 4941 4945 28
3957 4946 4947 28
3958 4946 4948 28
3959 4946 4949 28
3960 4946 4950 28
3961 4951 4952 28
3962 4951 4953 28
3963 4951 4954 28
3964 4951 4955 28
3965 4956 4957 28
3966 4956 4958 28
3967 4956 4959 28
3968 4956 4960 28
3969 4961 4962 28
3970 4961 4963 28
3971 4961 4964 28
3972 4961 4965 28
3973 4966 4967 28
3974 4966 4968 28
3975 4966 4969 28
3976 4966 4970 28
3977 4971 4972 28
3978 4971 4973 28
3979 4971 4974 28
3980 4971 4975 28
3981 4976 4977 28
3982 4976 4978 28
3983 4976 4979 28
3984 4976 4980 28
3985 4981 4982 28
3986 4981 4983 28
3987 4981 4984 28
3988 4981 4985 28
3989 4986 4987 28
3990 4986 4988 28
3991 4986 4989 28
3992 4986 4990 28
3993 4991 4992 28
3994 4991 4993 28
3995 4991 4994 28
3996 4991 4995 28
3997 4996 4997 28
3998 4996 4998 28
3999 4996 4999 28
4000 4996 5000 28
4001 5001 5002 28
4002 5001 5003 28
4003 5001 5004 28
4004 5001 5005 28
4005 5006 5007 28
4006 5006 5008 28
4007 5006 5009 28
4008 5006 5010 28
4009 5011 5012 28
4010 5011 5013 28
4011 5011 5014 28
4012 5011 5015 28
4013 5016 5017 28
4014 5016 5018 28
4015 5016 5019 28
4016 5016 5020 28
4017 5021 5022 28
4018 5021 5023 28
4019 5021 5024 28
4020 5021 5025 28
4021 5026 5027 28
4022 5026 5028 28
4023 5026 5029 28
4024 5026 5030 28
4025 5031 5032 28
4026 5031 5033 28
4027 5031 5034 28
4028 5031 5035 28
4029 5036 5037 28
4030 5036 5038 28
4031 5036 5039 28
4032 5036 5040 28
4033 5041 5042 28
4034 5041 5043 28
4035 5041 5044 28
4036 5041 5045 28
4037 5046 5047 28
4038 5046 5048 28
4039 5046 5049 28
4040 5046 5050 28
4041 5051 5052 28
4042 5051 5053 28
4043 5051 5054 28
4044 5051 5055 28
4045 5056 5057 28
4046 5056 5058 28
4047 5056 5059 28
4048 5056 5060 28
4049 5061 5062 28
4050 5061 5063 28
4051 5061 5064 28
4052 5061 5065 28
4053 5066 5067 28
4054 5066 5068 28
4055 5066 5069 28
4056 5066 5070 28
4057 5071 5072 28
4058 5071 5073 28
4059 5071 5074 28
4060 5071 5075 28
4061 5076 5077 28
4062 5076 5078 28
4063 5076 5079 28
4064 5076 5080 28
4065 5081 5082 28
4066 5081 5083 28
4067 5081 5084 28
4068 5081 5085 28
4069 5086 5087 28
4070 5086 5088 28
4071 5086 5089 28
4072 5086 5090 28
4073 5091 5092 28
4074 5091 5093 28
4075 5091 5094 28
4076 5091 5095 28
4077 5096 5097 28
4078 5096 5098 28
4079 5096 5099 28
4080 5096 5100 28
4081 5101 5102 28
4082 5101 5103 28
4083 5101 5104 28
4084 5101 5105 28
4085 5106 5107 28
4086 5106 5108 28
4087 5106 5109 28
4088 5106 5110 28
4089 5111 5112 28
4090 5111 5113 28
4091 5111 5114 28
4092 5111 5115 28
4093 5116 5117 28
4094 5116 5118 28
4095 5116 5119 28
4096 5116 5120 28
4097 5121 5122 28
4098 5121 5123 28
4099 5121 5124 28
4100 5121 5125 28
4101 5126 5127 28
4102 5126 5128 28
4103 5126 5129 28
4104 5126 5130 28
4105 5131 5132 28
4106 5131 5133 28
4107 5131 5134 28
4108 5131 5135 28
4109 5136 5137 28
4110 5136 5138 28
4111 5136 5139 28
4112 5136 5140 28
4113 5141 5142 28
4114 5141 5143 28
4115 5141 5144 28
4116 5141 5145 28
4117 5146 5147 28
4118 5146 5148 28
4119 5146 5149 28
4120 5146 5150 28
4121 5151 5152 28
4122 5151 5153 28
4123 5151 5154 28
4124 5151 5155 28
4125 5156 5157 28
4126 5156 5158 28
4127 5156 5159 28
4128 5156 5160 28
4129 5161 5162 28
4130 5161 5163 28
4131 5161 5164 28
4132 5161 5165 28
4133 5166 5167 28
4134 5166 5168 28
4135 5166 5169 28
4136 5166 5170 28
4137 5171 5172 28
4138 5171 5173 28
4139 5171 5174 28
4140 5171 5175 28
4141 5176 5177 28
4142 5176 5178 28
4143 5176 5179 28
4144 5176 5180 28
4145 5181 5182 28
4146 5181 5183 28
4147 5181 5184 28
4148 5181 5185 28
4149 5186 5187 28
4150 5186 5188 28
4151 5186 5189 28
4152 5186 5190 28
4153 5191 5192 28
4154 5191 5193 28
4155 5191 5194 28
4156 5191 5195 28
4157 5196 5197 28
4158 5196 5198 28
4159 5196 5199 28
4160 5196 5200 28
4161 5201 5202 28
4162 5201 5203 28
4163 5201 5204 28
4164 5201 5205 28
4165 5206 5207 28
4166 5206 5208 28
4167 5206 5209 28
4168 5206 5210 28
4169 5211 5212 28
4170 5211 5213 28
4171 5211 5214 28
4172 5211 5215 28
4173 5216 5217 28
4174 5216 5218 28
4175 5216 5219 28
4176 5216 5220 28
4177 5221 5222 28
4178 5221 5223 28
4179 5221 5224 28
4180 5221 5225 28
4181 5226 5227 28
4182 5226 5228 28
4183 5226 5229 28
4184 5226 5230 28
4185 5231 5232 28
4186 5231 5233 28
4187 5231 5234 28
4188 5231 5235 28
4189 5236 5237 28
4190 5236 5238 28
4191 5236 5239 28
4192 5236 5240 28
4193 5241 5242 28
4194 5241 5243 28
4195 5241 5244 28
4196 5241 5245 28
4197 5246 5247 28
4198 5246 5248 28
4199 5246 5249 28
4200 5246 5250 28
4201 5251 5252 28
4202 5251 5253 28
4203 5251 5254 28
4204 5251 5255 28
4205 5256 5257 28
4206 5256 5258 28
4207 5256 5259 28
4208 5256 5260 28
4209 5261 5262 28
4210 5261 5263 28
4211 5261 5264 28
4212 5261 5265 28
4213 5266 5267 28
4214 5266 5268 28
4215 5266 5269 28
4216 5266 5270 28
4217 5271 5272 28
4218 5271 5273 28
4219 5271 5274 28
4220 5271 5275 28
4221 5276 5277 28
4222 5276 5278 28
4223 5276 5279 28
4224 5276 5280 28
4225 5281 5282 28
4226 5281 5283 28
4227 5281 5284 28
4228 5281 5285 28
4229 5286 5287 28
4230 5286 5288 28
4231 5286 5289 28
4232 5286 5290 28
4233 5291 5292 28
4234 5291 5293 28
4235 5291 5294 28
4236 5291 5295 28
4237 5296 5297 28
4238 5296 5298 28
4239 5296 5299 28
4240 5296 5300 28
4241 5301 5302 28
4242 5301 5303 28
4243 5301 5304 28
4244 5301 5305 28
4245 5306 5307 28
4246 5306 5308 28
4247 5306 5309 28
4248 5306 5310 28
4249 5311 5312 28
4250 5311 5313 28
4251 5311 5314 28
4252 5311 5315 28
4253 5316 5317 28
4254 5316 5318 28
4255 5316 5319 28
4256 5316 5320 28
4257 5321 5322 28
4258 5321 5323 28
4259 5321 5324 28
4260 5321 5325 28
4261 5326 5327 28
4262 5326 5328 28
4263 5326 5329 28
4264 5326 5330 28
4265 5331 5332 28
4266 5331 5333 28
4267 5331 5334 28
4268 5331 5335 28
4269 5336 5337 28
4270 5336 5338 28
4271 5336 5339 28
4272 5336 5340 28
4273 5341 5342 28
4274 5341 5343 28
4275 5341 5344 28
4276 5341 5345 28
4277 5346 5347 28
4278 5346 5348 28
4279 5346 5349 28
4280 5346 5350 28
4281 5351 5352 28
4282 5351 5353 28
4283 5351 5354 28
4284 5351 5355 28
4285 5356 5357 28
4286 5356 5358 28
4287 5356 5359 28
4288 5356 5360 28
4289 5361 5362 28
4290 5361 5363 28
4291 5361 5364 28
4292 5361 5365 28
4293 5366 5367 28
4294 5366 5368 28
4295 5366 5369 28
4296 5366 5370 28
4297 5371 5372 28
4298 5371 5373 28
4299 5371 5374 28
4300 5371 5375 28
4301 5376 5377 28
4302 5376 5378 28
4303 5376 5379 28
4304 5376 5380 28
4305 5381 5382 28
4306 5381 5383 28
4307 5381 5384 28
4308 5381 5385 28
4309 5386 5387 28
4310 5386 5388 28
4311 5386 5389 28
4312 5386 5390 28
4313 5391 5392 28
4314 5391 5393 28
4315 5391 5394 28
4316 5391 5395 28
4317 5396 5397 28
4318 5396 5398 28
4319 5396 5399 28
4320 5396 5400 28
4321 5401 5402 28
4322 5401 5403 28
4323 5401 5404 28
4324 5401 5405 28
4325 5406 5407 28
4326 5406 5408 28
4327 5406 5409 28
4328 5406 5410 28
4329 5411 5412 28
4330 5411 5413 28
4331 5411 5414 28
4332 5411 5415 28
4333 5416 5417 28
4334 5416 5418 28
4335 5416 5419 28
4336 5416 5420 28
4337 5421 5422 28
4338 5421 5423 28
4339 5421 5424 28
4340 5421 5425 28
4341 5426 5427 28
4342 5426 5428 28
4343 5426 5429 28
4344 5426 5430 28
4345 5431 5432 28
4346 5431 5433 28
4347 5431 5434 28
4348 5431 5435 28
4349 5436 5437 28
4350 5436 5438 28
4351 5436 5439 28
4352 5436 5440 28
4353 5441 5442 28
4354 5441 5443 28
4355 5441 5444 28
4356 5441 5445 28
4357 5446 5447 28
4358 5446 5448 28
4359 5446 5449 28
4360 5446 5450 28
4361 5451 5452 28
4362 5451 5453 28
4363 5451 5454 28
4364 5451 5455 28
4365 5456 5457 28
4366 5456 5458 28
4367 5456 5459 28
4368 5456 5460 28
4369 5461 5462 28
4370 5461 5463 28
4371 5461 5464 28
4372 5461 5465 28
4373 5466 5467 28
4374 5466 5468 28
4375 5466 5469 28
4376 5466 5470 28
4377 5471 5472 28
4378 5471 5473 28
4379 5471 5474 28
4380 5471 5475 28
4381 5476 5477 28
4382 5476 5478 28
4383 5476 5479 28
4384 5476 5480 28
4385 5481 5482 28
4386 5481 5483 28
4387 5481 5484 28
4388 5481 5485 28
4389 5486 5487 28
4390 5486 5488 28
4391 5486 5489 28
4392 5486 5490 28
4393 5491 5492 28
4394 5491 5493 28
4395 5491 5494 28
4396 5491 5495 28
4397 5496 5497 28
4398 5496 5498 28
4399 5496 5499 28
4400 5496 5500 28
4401 5501 5502 28
4402 5501 5503 28
4403 5501 5504 28
4404 5501 5505 28
4405 5506 5507 28
4406 5506 5508 28
4407 5506 5509 28
4408 5506 5510 28
4409 5511 5512 28
4410 5511 5513 28
4411 5511 5514 28
4412 5511 5515 28
4413 5516 5517 28
4414 5516 5518 28
4415 5516 5519 28
4416 5516 5520 28
4417 5521 5522 28
4418 5521 5523 28
4419 5521 5524 28
4420 5521 5525 28
4421 5526 5527 28
4422 5526 5528 28
4423 5526 5529 28
4424 5526 5530 28
4425 5531 5532 28
4426 5531 5533 28
4427 5531 5534 28
4428 5531 5535 28
4429 5536 5537 28
4430 5536 5538 28
4431 5536 5539 28
4432 5536 5540 28
4433 5541 5542 28
4434 5541 5543 28
4435 5541 5544 28
4436 5541 5545 28
4437 5546 5547 28
4438 5546 5548 28
4439 5546 5549 28
4440 5546 5550 28
4441 5551 5552 28
4442 5551 5553 28
4443 5551 5554 28
4444 5551 5555 28
4445 5556 5557 28
4446 5556 5558 28
4447 5556 5559 28
4448 5556 5560 28
4449 5561 5562 28
4450 5561 5563 28
4451 5561 5564 28
4452 5561 5565 28
4453 5566 5567 28
4454 5566 5568 28
4455 5566 5569 28
4456 5566 5570 28
4457 5571 5572 28
4458 5571 5573 28
4459 5571 5574 28
4460 5571 5575 28
4461 5576 5577 28
4462 5576 5578 28
4463 5576 5579 28
4464 5576 5580 28
4465 5581 5582 28
4466 5581 5583 28
4467 5581 5584 28
4468 5581 5585 28
4469 5586 5587 28
4470 5586 5588 28
4471 5586 5589 28
4472 5586 5590 28
4473 5591 5592 28
4474 5591 5593 28
4475 5591 5594 28
4476 5591 5595 28
4477 5596 5597 28
4478 5596 5598 28
4479 5596 5599 28
4480 5596 5600 28
4481 5601 5602 28
4482 5601 5603 28
4483 5601 5604 28
4484 5601 5605 28
4485 5606 5607 28
4486 5606 5608 28
4487 5606 5609 28
4488 5606 5610 28
4489 5611 5612 28
4490 5611 5613 28
4491 5611 5614 28
4492 5611 5615 28
4493 5616 5617 28
4494 5616 5618 28
4495 5616 5619 28
4496 5616 5620 28
4497 5621 5622 28
4498 5621 5623 28
4499 5621 5624 28
4500 5621 5625 28
4501 5626 5627 28
4502 5626 5628 28
4503 5626 5629 28
4504 5626 5630 28
4505 5631 5632 28
4506 5631 5633 28
4507 5631 5634 28
4508 5631 5635 28
4509 5636 5637 28
4510 5636 5638 28
4511 5636 5639 28
4512 5636 5640 28
4513 5641 5642 28
4514 5641 5643 28
4515 5641 5644 28
4516 5641 5645 28
4517 5646 5647 28
4518 5646 5648 28
4519 5646 5649 28
4520 5646 5650 28
4521 5651 5652 28
4522 5651 5653 28
4523 5651 5654 28
4524 5651 5655 28
4525 5656 5657 28
4526 5656 5658 28
4527 5656 5659 28
4528 5656 5660 28
4529 5661 5662 28
4530 5661 5663 28
4531 5661 5664 28
4532 5661 5665 28
4533 5666 5667 28
4534 5666 5668 28
4535 5666 5669 28
4536 5666 5670 28
4537 5671 5672 28
4538 5671 5673 28
4539 5671 5674 28
4540 5671 5675 28
4541 5676 5677 28
4542 5676 5678 28
4543 5676 5679 28
4544 5676 5680 28
4545 5681 5682 28
4546 5681 5683 28
4547 5681 5684 28
4548 5681 5685 28
4549 5686 5687 28
4550 5686 5688 28
4551 5686 5689 28
4552 5686 5690 28
4553 5691 5692 28
4554 5691 5693 28
4555 5691 5694 28
4556 5691 5695 28
4557 5696 5697 28
4558 5696 5698 28
4559 5696 5699 28
4560 5696 5700 28
4561 5701 5702 28
4562 5701 5703 28
4563 5701 5704 28
4564 5701 5705 28
4565 5706 5707 28
4566 5706 5708 28
4567 5706 5709 28
4568 5706 5710 28
4569 5711 5712 28
4570 5711 5713 28
4571 5711 5714 28
4572 5711 5715 28
4573 5716 5717 28
4574 5716 5718 28
4575 5716 5719 28
4576 5716 5720 28
4577 5721 5722 28
4578 5721 5723 28
4579 5721 5724 28
4580 5721 5725 28
4581 5726 5727 28
4582 5726 5728 28
4583 5726 5729 28
4584 5726 5730 28
4585 5731 5732 28
4586 5731 5733 28
4587 5731 5734 28
4588 5731 5735 28
4589 5736 5737 28
4590 5736 5738 28
4591 5736 5739 28
4592 5736 5740 28
4593 5741 5742 28
4594 5741 5743 28
4595 5741 5744 28
4596 5741 5745 28
4597 5746 5747 28
4598 5746 5748 28
4599 5746 5749 28
4600 5746 5750 28
4601 5751 5752 28
4602 5751 5753 28
4603 5751 5754 28
4604 5751 5755 28
4605 5756 5757 28
4606 5756 5758 28
4607 5756 5759 28
4608 5756 5760 28
4609 5761 5762 28
4610 5761 5763 28
4611 5761 5764 28
4612 5761 5765 28
4613 5766 5767 28
4614 5766 5768 28
4615 5766 5769 28
4616 5766 5770 28
4617 5771 5772 28
4618 5771 5773 28
4619 5771 5774 28
4620 5771 5775 28
4621 5776 5777 28
4622 5776 5778 28
4623 5776 5779 28
4624 5776 5780 28
4625 5781 5782 28
4626 5781 5783 28
4627 5781 5784 28
4628 5781 5785 28
4629 5786 5787 28
4630 5786 5788 28
4631 5786 5789 28
4632 5786 5790 28
4633 5791 5792 28
4634 5791 5793 28
4635 5791 5794 28
4636 5791 5795 28
4637 5796 5797 28
4638 5796 5798 28
4639 5796 5799 28
4640 5796 5800 28
4641 5801 5802 28
4642 5801 5803 28
4643 5801 5804 28
4644 5801 5805 28
4645 5806 5807 28
4646 5806 5808 28
4647 5806 5809 28
4648 5806 5810 28
4649 5811 5812 28
4650 5811 5813 28
4651 5811 5814 28
4652 5811 5815 28
4653 5816 5817 28
4654 5816 5818 28
4655 5816 5819 28
4656 5816 5820 28
4657 5821 5822 28
4658 5821 5823 28
4659 5821 5824 28
4660 5821 5825 28
4661 5826 5827 28
4662 5826 5828 28
4663 5826 5829 28
4664 5826 5830 28
4665 5831 5832 28
4666 5831 5833 28
4667 5831 5834 28
4668 5831 5835 28
4669 5836 5837 28
4670 5836 5838 28
4671 5836 5839 28
4672 5836 5840 28
4673 5841 5842 28
4674 5841 5843 28
4675 5841 5844 28
4676 5841 5845 28
4677 5846 5847 28
4678 5846 5848 28
4679 5846 5849 28
4680 5846 5850 28
4681 5851 5852 28
4682 5851 5853 28
4683 5851 5854 28
4684 5851 5855 28
4685 5856 5857 28
4686 5856 5858 28
4687 5856 5859 28
4688 5856 5860 28
4689 5861 5862 28
4690 5861 5863 28
4691 5861 5864 28
4692 5861 5865 28
4693 5866 5867 28
4694 5866 5868 28
4695 5866 5869 28
4696 5866 5870 28
4697 5871 5872 28
4698 5871 5873 28
4699 5871 5874 28
4700 5871 5875 28
4701 5876 5877 28
4702 5876 5878 28
4703 5876 5879 28
4704 5876 5880 28
4705 5881 5882 28
4706 5881 5883 28
4707 5881 5884 28
4708 5881 5885 28
4709 5886 5887 28
4710 5886 5888 28
4711 5886 5889 28
4712 5886 5890 28
4713 5891 5892 28
4714 5891 5893 28
4715 5891 5894 28
4716 5891 5895 28
4717 5896 5897 28
4718 5896 5898 28
4719 5896 5899 28
4720 5896 5900 28
4721 5901 5902 28
4722 5901 5903 28
4723 5901 5904 28
4724 5901 5905 28
4725 5906 5907 28
4726 5906 5908 28
4727 5906 5909 28
4728 5906 5910 28
4729 5911 5912 28
4730 5911 5913 28
4731 5911 5914 28
4732 5911 5915 28
4733 5916 5917 28
4734 5916 5918 28
4735 5916 5919 28
4736 5916 5920 28
4737 5921 5922 28
4738 5921 5923 28
4739 5921 5924 28
4740 5921 5925 28
4741 5926 5927 28
4742 5926 5928 28
4743 5926 5929 28
4744 5926 5930 28
4745 5931 5932 28
4746 5931 5933 28
4747 5931 5934 28
4748 5931 5935 28
4749 5936 5937 28
4750 5936 5938 28
4751 5936 5939 28
4752 5936 5940 28
4753 5941 5942 28
4754 5941 5943 28
4755 5941 5944 28
4756 5941 5945 28
4757 5946 5947 28
4758 5946 5948 28
4759 5946 5949 28
4760 5946 5950 28
4761 5951 5952 28
4762 5951 5953 28
4763 5951 5954 28
4764 5951 5955 28
4765 5956 5957 28
4766 5956 5958 28
4767 5956 5959 28
4768 5956 5960 28
4769 5961 5962 28
4770 5961 5963 28
4771 5961 5964 28
4772 5961 5965 28
4773 5966 5967 28
4774 5966 5968 28
4775 5966 5969 28
4776 5966 5970 28
4777 5971 5972 28
4778 5971 5973 28
4779 5971 5974 28
4780 5971 5975 28
4781 5976 5977 28
4782 5976 5978 28
4783 5976 5979 28
4784 5976 5980 28
4785 5981 5982 28
4786 5981 5983 28
4787 5981 5984 28
4788 5981 5985 28
4789 5986 5987 28
4790 5986 5988 28
4791 5986 5989 28
4792 5986 5990 28
4793 5991 5992 28
4794 5991 5993 28
4795 5991 5994 28
4796 5991 5995 28
4797 5996 5997 28
4798 5996 5998 28
4799 5996 5999 28
4800 5996 6000 28
4801 6001 6002 28
4802 6001 6003 28
4803 6001 6004 28
4804 6001 6005 28
4805 6006 6007 28
4806 6006 6008 28
4807 6006 6009 28
4808 6006 6010 28
4809 6011 6012 28
4810 6011 6013 28
4811 6011 6014 28
4812 6011 6015 28
4813 6016 6017 28
4814 6016 6018 28
4815 6016 6019 28
4816 6016 6020 28
4817 6021 6022 28
4818 6021 6023 28
4819 6021 6024 28
4820 6021 6025 28
4821 6026 6027 28
4822 6026 6028 28
4823 6026 6029 28
4824 6026 6030 28
4825 6031 6032 28
4826 6031 6033 28
4827 6031 6034 28
4828 6031 6035 28
4829 6036 6037 28
4830 6036 6038 28
4831 6036 6039 28
4832 6036 6040 28
4833 6041 6042 28
4834 6041 6043 28
4835 6041 6044 28
4836 6041 6045 28
4837 6046 6047 28
4838 6046 6048 28
4839 6046 6049 28
4840 6046 6050 28
4841 6051 6052 28
4842 6051 6053 28
4843 6051 6054 28
4844 6051 6055 28
4845 6056 6057 28
4846 6056 6058 28
4847 6056 6059 28
4848 6056 6060 28
4849 6061 6062 28
4850 6061 6063 28
4851 6061 6064 28
4852 6061 6065 28
4853 6066 6067 28
4854 6066 6068 28
4855 6066 6069 28
4856 6066 6070 28
4857 6071 6072 28
4858 6071 6073 28
4859 6071 6074 28
4860 6071 6075 28
4861 6076 6077 28
4862 6076 6078 28
4863 6076 6079 28
4864 6076 6080 28
4865 6081 6082 28
4866 6081 6083 28
4867 6081 6084 28
4868 6081 6085 28
4869 6086 6087 28
4870 6086 6088 28
4871 6086 6089 28
4872 6086 6090 28
4873 6091 6092 28
4874 6091 6093 28
4875 6091 6094 28
4876 6091 6095 28
4877 6096 6097 28
4878 6096 6098 28
4879 6096 6099 28
4880 6096 6100 28
4881 6101 6102 28
4882 6101 6103 28
4883 6101 6104 28
4884 6101 6105 28
4885 6106 6107 28
4886 6106 6108 28
4887 6106 6109 28
4888 6106 6110 28
4889 6111 6112 28
4890 6111 6113 28
4891 6111 6114 28
4892 6111 6115 28
4893 6116 6117 28
4894 6116 6118 28
4895 6116 6119 28
4896 6116 6120 28
4897 6121 6122 28
4898 6121 6123 28
4899 6121 6124 28
4900 6121 6125 28
4901 6126 6127 28
4902 6126 6128 28
4903 6126 6129 28
4904 6126 6130 28
4905 6131 6132 28
4906 6131 6133 28
4907 6131 6134 28
4908 6131 6135 28
4909 6136 6137 28
4910 6136 6138 28
4911 6136 6139 28
4912 6136 6140 28
4913 6141 6142 28
4914 6141 6143 28
4915 6141 6144 28
4916 6141 6145 28
4917 6146 6147 28
4918 6146 6148 28
4919 6146 6149 28
4920 6146 6150 28
4921 6151 6152 28
4922 6151 6153 28
4923 6151 6154 28
4924 6151 6155 28
4925 6156 6157 28
4926 6156 6158 28
4927 6156 6159 28
4928 6156 6160 28
4929 6161 6162 28
4930 6161 6163 28
4931 6161 6164 28
4932 6161 6165 28
4933 6166 6167 28
4934 6166 6168 28
4935 6166 6169 28
4936 6166 6170 28
4937 6171 6172 28
4938 6171 6173 28
4939 6171 6174 28
4940 6171 6175 28
4941 6176 6177 28
4942 6176 6178 28
4943 6176 6179 28
4944 6176 6180 28
4945 6181 6182 28
4946 6181 6183 28
4947 6181 6184 28
4948 6181 6185 28
4949 6186 6187 28
4950 6186 6188 28
4951 6186 6189 28
4952 6186 6190 28
4953 6191 6192 28
4954 6191 6193 28
4955 6191 6194 28
4956 6191 6195 28
4957 6196 6197 28
4958 6196 6198 28
4959 6196 6199 28
4960 6196 6200 28
4961 6201 6202 28
4962 6201 6203 28
4963 6201 6204 28
4964 6201 6205 28
4965 6206 6207 28
4966 6206 6208 28
4967 6206 6209 28
4968 6206 6210 28
4969 6211 6212 28
4970 6211 6213 28
4971 6211 6214 28
4972 6211 6215 28
4973 6216 6217 28
4974 6216 6218 28
4975 6216 6219 28
4976 6216 6220 28
4977 6221 6222 28
4978 6221 6223 28
4979 6221 6224 28
4980 6221 6225 28
4981 6226 6227 28
4982 6226 6228 28
4983 6226 6229 28
4984 6226 6230 28
4985 6231 6232 28
4986 6231 6233 28
4987 6231 6234 28
4988 6231 6235 28
4989 6236 6237 28
4990 6236 6238 28
4991 6236 6239 28
4992 6236 6240 28
4993 6241 6242 28
4994 6241 6243 28
4995 6241 6244 28
4996 6241 6245 28
4997 6246 6247 28
4998 6246 6248 28
4999 6246 6249 28
5000 6246 6250 28
5001 6251 6252 28
5002 6251 6253 28
5003 6251 6254 28
5004 6251 6255 28
5005 6256 6257 28
5006 6256 6258 28
5007 6256 6259 28
5008 6256 6260 28
5009 6261 6262 28
5010 6261 6263 28
5011 6261 6264 28
5012 6261 6265 28
5013 6266 6267 28
5014 6266 6268 28
5015 6266 6269 28
5016 6266 6270 28
5017 6271 6272 28
5018 6271 6273 28
5019 6271 6274 28
5020 6271 6275 28
5021 6276 6277 28
5022 6276 6278 28
5023 6276 6279 28
5024 6276 6280 28
5025 6281 6282 28
5026 6281 6283 28
5027 6281 6284 28
5028 6281 6285 28
5029 6286 6287 28
5030 6286 6288 28
5031 6286 6289 28
5032 6286 6290 28
5033 6291 6292 28
5034 6291 6293 28
5035 6291 6294 28
5036 6291 6295 28
5037 6296 6297 28
5038 6296 6298 28
5039 6296 6299 28
5040 6296 6300 28
5041 6301 6302 28
5042 6301 6303 28
5043 6301 6304 28
5044 6301 6305 28
5045 6306 6307 28
5046 6306 6308 28
5047 6306 6309 28
5048 6306 6310 28
5049 6311 6312 28
5050 6311 6313 28
5051 6311 6314 28
5052 6311 6315 28
5053 6316 6317 28
5054 6316 6318 28
5055 6316 6319 28
5056 6316 6320 28
5057 6321 6322 28
5058 6321 6323 28
5059 6321 6324 28
5060 6321 6325 28
5061 6326 6327 28
5062 6326 6328 28
5063 6326 6329 28
5064 6326 6330 28
5065 6331 6332 28
5066 6331 6333 28
5067 6331 6334 28
5068 6331 6335 28
5069 6336 6337 28
5070 6336 6338 28
5071 6336 6339 28
5072 6336 6340 28
5073 6341 6342 28
5074 6341 6343 28
5075 6341 6344 28
5076 6341 6345 28
5077 6346 6347 28
5078 6346 6348 28
5079 6346 6349 28
5080 6346 6350 28
5081 6351 6352 28
5082 6351 6353 28
5083 6351 6354 28
5084 6351 6355 28
5085 6356 6357 28
5086 6356 6358 28
5087 6356 6359 28
5088 6356 6360 28
5089 6361 6362 28
5090 6361 6363 28
5091 6361 6364 28
5092 6361 6365 28
5093 6366 6367 28
5094 6366 6368 28
5095 6366 6369 28
5096 6366 6370 28
5097 6371 6372 28
5098 6371 6373 28
5099 6371 6374 28
5100 6371 6375 28
5101 6376 6377 28
5102 6376 6378 28
5103 6376 6379 28
5104 6376 6380 28
5105 6381 6382 28
5106 6381 6383 28
5107 6381 6384 28
5108 6381 6385 28
5109 6386 6387 28
5110 6386 6388 28
5111 6386 6389 28
5112 6386 6390 28
5113 6391 6392 28
5114 6391 6393 28
5115 6391 6394 28
5116 6391 6395 28
5117 6396 6397 28
5118 6396 6398 28
5119 6396 6399 28
5120 6396 6400 28
5121 6401 6402 28
5122 6401 6403 28
5123 6401 6404 28
5124 6401 6405 28
5125 6406 6407 28
5126 6406 6408 28
5127 6406 6409 28
5128 6406 6410 28
5129 6411 6412 28
5130 6411 6413 28
5131 6411 6414 28
5132 6411 6415 28
5133 6416 6417 28
5134 6416 6418 28
5135 6416 6419 28
5136 6416 6420 28
5137 6421 6422 28
5138 6421 6423 28
5139 6421 6424 28
5140 6421 6425 28
5141 6426 6427 28
5142 6426 6428 28
5143 6426 6429 28
5144 6426 6430 28
5145 6431 6432 28
5146 6431 6433 28
5147 6431 6434 28
5148 6431 6435 28
5149 6436 6437 28
5150 6436 6438 28
5151 6436 6439 28
5152 6436 6440 28
5153 6441 6442 28
5154 6441 6443 28
5155 6441 6444 28
5156 6441 6445 28
5157 6446 6447 28
5158 6446 6448 28
5159 6446 6449 28
5160 6446 6450 28
5161 6451 6452 28
5162 6451 6453 28
5163 6451 6454 28
5164 6451 6455 28
5165 6456 6457 28
5166 6456 6458 28
5167 6456 6459 28
5168 6456 6460 28
5169 6461 6462 28
5170 6461 6463 28
5171 6461 6464 28
5172 6461 6465 28
5173 6466 6467 28
5174 6466 6468 28
5175 6466 6469 28
5176 6466 6470 28
5177 6471 6472 28
5178 6471 6473 28
5179 6471 6474 28
5180 6471 6475 28
5181 6476 6477 28
5182 6476 6478 28
5183 6476 6479 28
5184 6476 6480 28
5185 6481 6482 28
5186 6481 6483 28
5187 6481 6484 28
5188 6481 6485 28
5189 6486 6487 28
5190 6486 6488 28
5191 6486 6489 28
5192 6486 6490 28
5193 6491 6492 28
5194 6491 6493 28
5195 6491 6494 28
5196 6491 6495 28
5197 6496 6497 28
5198 6496 6498 28
5199 6496 6499 28
5200 6496 6500 28
5201 6501 6502 28
5202 6501 6503 28
5203 6501 6504 28
5204 6501 6505 28
5205 6506 6507 28
5206 6506 6508 28
5207 6506 6509 28
5208 6506 6510 28
5209 6511 6512 28
5210 6511 6513 28
5211 6511 6514 28
5212 6511 6515 28
5213 6516 6517 28
5214 6516 6518 28
5215 6516 6519 28
5216 6516 6520 28
5217 6521 6522 28
5218 6521 6523 28
5219 6521 6524 28
5220 6521 6525 28
5221 6526 6527 28
5222 6526 6528 28
5223 6526 6529 28
5224 6526 6530 28
5225 6531 6532 28
5226 6531 6533 28
5227 6531 6534 28
5228 6531 6535 28
5229 6536 6537 28
5230 6536 6538 28
5231 6536 6539 28
5232 6536 6540 28
5233 6541 6542 28
5234 6541 6543 28
5235 6541 6544 28
5236 6541 6545 28
5237 6546 6547 28
5238 6546 6548 28
5239 6546 6549 28
5240 6546 6550 28
5241 6551 6552 28
5242 6551 6553 28
5243 6551 6554 28
5244 6551 6555 28
5245 6556 6557 28
5246 6556 6558 28
5247 6556 6559 28
5248 6556 6560 28
5249 6561 6562 28
5250 6561 6563 28
5251 6561 6564 28
5252 6561 6565 28
5253 6566 6567 28
5254 6566 6568 28
5255 6566 6569 28
5256 6566 6570 28
5257 6571 6572 28
5258 6571 6573 28
5259 6571 6574 28
5260 6571 6575 28
5261 6576 6577 28
5262 6576 6578 28
5263 6576 6579 28
5264 6576 6580 28
5265 6581 6582 28
5266 6581 6583 28
5267 6581 6584 28
5268 6581 6585 28
5269 6586 6587 28
5270 6586 6588 28
5271 6586 6589 28
5272 6586 6590 28
5273 6591 6592 28
5274 6591 6593 28
5275 6591 6594 28
5276 6591 6595 28
5277 6596 6597 28
5278 6596 6598 28
5279 6596 6599 28
5280 6596 6600 28
5281 6601 6602 28
5282 6601 6603 28
5283 6601 6604 28
5284 6601 6605 28
5285 6606 6607 28
5286 6606 6608 28
5287 6606 6609 28
5288 6606 6610 28
5289 6611 6612 28
5290 6611 6613 28
5291 6611 6614 28
5292 6611 6615 28
5293 6616 6617 28
5294 6616 6618 28
5295 6616 6619 28
5296 6616 6620 28
5297 6621 6622 28
5298 6621 6623 28
5299 6621 6624 28
5300 6621 6625 28
5301 6626 6627 28
5302 6626 6628 28
5303 6626 6629 28
5304 6626 6630 28
5305 6631 6632 28
5306 6631 6633 28
5307 6631 6634 28
5308 6631 6635 28
5309 6636 6637 28
5310 6636 6638 28
5311 6636 6639 28
5312 6636 6640 28
5313 6641 6642 28
5314 6641 6643 28
5315 6641 6644 28
5316 6641 6645 28
5317 6646 6647 28
5318 6646 6648 28
5319 6646 6649 28
5320 6646 6650 28
5321 6651 6652 28
5322 6651 6653 28
5323 6651 6654 28
5324 6651 6655 28
5325 6656 6657 28
5326 6656 6658 28
5327 6656 6659 28
5328 6656 6660 28
5329 6661 6662 28
5330 6661 6663 28
5331 6661 6664 28
5332 6661 6665 28
5333 6666 6667 28
5334 6666 6668 28
5335 6666 6669 28
5336 6666 6670 28
5337 6671 6672 28
5338 6671 6673 28
5339 6671 6674 28
5340 6671 6675 28
5341 6676 6677 28
5342 6676 6678 28
5343 6676 6679 28
5344 6676 6680 28
5345 6681 6682 28
5346 6681 6683 28
5347 6681 6684 28
5348 6681 6685 28
5349 6686 6687 28
5350 6686 6688 28
5351 6686 6689 28
5352 6686 6690 28
5353 6691 6692 28
5354 6691 6693 28
5355 6691 6694 28
5356 6691 6695 28
5357 6696 6697 28
5358 6696 6698 28
5359 6696 6699 28
5360 6696 6700 28
5361 6701 6702 28
5362 6701 6703 28
5363 6701 6704 28
5364 6701 6705 28
5365 6706 6707 28
5366 6706 6708 28
5367 6706 6709 28
5368 6706 6710 28
5369 6711 6712 28
5370 6711 6713 28
5371 6711 6714 28
5372 6711 6715 28
5373 6716 6717 28
5374 6716 6718 28
5375 6716 6719 28
5376 6716 6720 28
5377 6721 6722 28
5378 6721 6723 28
5379 6721 6724 28
5380 6721 6725 28
5381 6726 6727 28
5382 6726 6728 28
5383 6726 6729 28
5384 6726 6730 28
5385 6731 6732 28
5386 6731 6733 28
5387 6731 6734 28
5388 6731 6735 28
5389 6736 6737 28
5390 6736 6738 28
5391 6736 6739 28
5392 6736 6740 28
5393 6741 6742 28
5394 6741 6743 28
5395 6741 6744 28
5396 6741 6745 28
5397 6746 6747 28
5398 6746 6748 28
5399 6746 6749 28
5400 6746 6750 28
5401 6751 6752 28
5402 6751 6753 28
5403 6751 6754 28
5404 6751 6755 28
5405 6756 6757 28
5406 6756 6758 28
5407 6756 6759 28
5408 6756 6760 28
5409 6761 6762 28
5410 6761 6763 28
5411 6761 6764 28
5412 6761 6765 28
5413 6766 6767 28
5414 6766 6768 28
5415 6766 6769 28
5416 6766 6770 28
5417 6771 6772 28
5418 6771 6773 28
5419 6771 6774 28
5420 6771 6775 28
5421 6776 6777 28
5422 6776 6778 28
5423 6776 6779 28
5424 6776 6780 28
5425 6781 6782 28
5426 6781 6783 28
5427 6781 6784 28
5428 6781 6785 28
5429 6786 6787 28
5430 6786 6788 28
5431 6786 6789 28
5432 6786 6790 28
5433 6791 6792 28
5434 6791 6793 28
5435 6791 6794 28
5436 6791 6795 28
5437 6796 6797 28
5438 6796 6798 28
5439 6796 6799 28
5440 6796 6800 28
5441 6801 6802 28
5442 6801 6803 28
5443 6801 6804 28
5444 6801 6805 28
5445 6806 6807 28
5446 6806 6808 28
5447 6806 6809 28
5448 6806 6810 28
5449 6811 6812 28
5450 6811 6813 28
5451 6811 6814 28
5452 6811 6815 28
5453 6816 6817 28
5454 6816 6818 28
5455 6816 6819 28
5456 6816 6820 28
5457 6821 6822 28
5458 6821 6823 28
5459 6821 6824 28
5460 6821 6825 28
5461 6826 6827 28
5462 6826 6828 28
5463 6826 6829 28
5464 6826 6830 28
5465 6831 6832 28
5466 6831 6833 28
5467 6831 6834 28
5468 6831 6835 28
5469 6836 6837 28
5470 6836 6838 28
5471 6836 6839 28
5472 6836 6840 28
5473 6841 6842 28
5474 6841 6843 28
5475 6841 6844 28
5476 6841 6845 28
5477 6846 6847 28
5478 6846 6848 28
5479 6846 6849 28
5480 6846 6850 28
5481 6851 6852 28
5482 6851 6853 28
5483 6851 6854 28
5484 6851 6855 28
5485 6856 6857 28
5486 6856 6858 28
5487 6856 6859 28
5488 6856 6860 28
5489 6861 6862 28
5490 6861 6863 28
5491 6861 6864 28
5492 6861 6865 28
5493 6866 6867 28
5494 6866 6868 28
5495 6866 6869 28
5496 6866 6870 28
5497 6871 6872 28
5498 6871 6873 28
5499 6871 6874 28
5500 6871 6875 28
5501 6876 6877 28
5502 6876 6878 28
5503 6876 6879 28
5504 6876 6880 28
5505 6881 6882 28
5506 6881 6883 28
5507 6881 6884 28
5508 6881 6885 28
5509 6886 6887 28
5510 6886 6888 28
5511 6886 6889 28
5512 6886 6890 28
5513 6891 6892 28
5514 6891 6893 28
5515 6891 6894 28
5516 6891 6895 28
5517 6896 6897 28
5518 6896 6898 28
5519 6896 6899 28
5520 6896 6900 28
5521 6901 6902 28
5522 6901 6903 28
5523 6901 6904 28
5524 6901 6905 28
5525 6906 6907 28
5526 6906 6908 28
5527 6906 6909 28
5528 6906 6910 28
5529 6911 6912 28
5530 6911 6913 28
5531 6911 6914 28
5532 6911 6915 28
5533 6916 6917 28
5534 6916 6918 28
5535 6916 6919 28
5536 6916 6920 28
5537 6921 6922 28
5538 6921 6923 28
5539 6921 6924 28
5540 6921 6925 28
5541 6926 6927 28
5542 6926 6928 28
5543 6926 6929 28
5544 6926 6930 28
5545 6931 6932 28
5546 6931 6933 28
5547 6931 6934 28
5548 6931 6935 28
5549 6936 6937 28
5550 6936 6938 28
5551 6936 6939 28
5552 6936 6940 28
5553 6941 6942 28
5554 6941 6943 28
5555 6941 6944 28
5556 6941 6945 28
5557 6946 6947 28
5558 6946 6948 28
5559 6946 6949 28
5560 6946 6950 28
5561 6951 6952 28
5562 6951 6953 28
5563 6951 6954 28
5564 6951 6955 28
5565 6956 6957 28
5566 6956 6958 28
5567 6956 6959 28
5568 6956 6960 28
5569 6961 6962 28
5570 6961 6963 28
5571 6961 6964 28
5572 6961 6965 28
5573 6966 6967 28
5574 6966 6968 28
5575 6966 6969 28
5576 6966 6970 28
5577 6971 6972 28
5578 6971 6973 28
5579 6971 6974 28
5580 6971 6975 28
5581 6976 6977 28
5582 6976 6978 28
5583 6976 6979 28
5584 6976 6980 28
5585 6981 6982 28
5586 6981 6983 28
5587 6981 6984 28
5588 6981 6985 28
5589 6986 6987 28
5590 6986 6988 28
5591 6986 6989 28
5592 6986 6990 28
5593 6991 6992 28
5594 6991 6993 28
5595 6991 6994 28
5596 6991 6995 28
5597 6996 6997 28
5598 6996 6998 28
5599 6996 6999 28
5600 6996 7000 28
5601 7001 7002 28
5602 7001 7003 28
5603 7001 7004 28
5604 7001 7005 28
5605 7006 7007 28
5606 7006 7008 28
5607 7006 7009 28
5608 7006 7010 28
5609 7011 7012 28
5610 7011 7013 28
5611 7011 7014 28
5612 7011 7015 28
5613 7016 7017 28
5614 7016 7018 28
5615 7016 7019 28
5616 7016 7020 28
5617 7021 7022 28
5618 7021 7023 28
5619 7021 7024 28
5620 7021 7025 28
5621 7026 7027 28
5622 7026 7028 28
5623 7026 7029 28
5624 7026 7030 28
5625 7031 7032 28
5626 7031 7033 28
5627 7031 7034 28
5628 7031 7035 28
5629 7036 7037 28
5630 7036 7038 28
5631 7036 7039 28
5632 7036 7040 28
5633 7041 7042 28
5634 7041 7043 28
5635 7041 7044 28
5636 7041 7045 28
5637 7046 7047 28
5638 7046 7048 28
5639 7046 7049 28
5640 7046 7050 28
5641 7051 7052 28
5642 7051 7053 28
5643 7051 7054 28
5644 7051 7055 28
5645 7056 7057 28
5646 7056 7058 28
5647 7056 7059 28
5648 7056 7060 28
5649 7061 7062 28
5650 7061 7063 28
5651 7061 7064 28
5652 7061 7065 28
5653 7066 7067 28
5654 7066 7068 28
5655 7066 7069 28
5656 7066 7070 28
5657 7071 7072 28
5658 7071 7073 28
5659 7071 7074 28
5660 7071 7075 28
5661 7076 7077 28
5662 7076 7078 28
5663 7076 7079 28
5664 7076 7080 28
5665 7081 7082 28
5666 7081 7083 28
5667 7081 7084 28
5668 7081 7085 28
5669 7086 7087 28
5670 7086 7088 28
5671 7086 7089 28
5672 7086 7090 28
5673 7091 7092 28
5674 7091 7093 28
5675 7091 7094 28
5676 7091 7095 28
5677 7096 7097 28
5678 7096 7098 28
5679 7096 7099 28
5680 7096 7100 28
5681 7101 7102 28
5682 7101 7103 28
5683 7101 7104 28
5684 7101 7105 28
5685 7106 7107 28
5686 7106 7108 28
5687 7106 7109 28
5688 7106 7110 28
5689 7111 7112 28
5690 7111 7113 28
5691 7111 7114 28
5692 7111 7115 28
5693 7116 7117 28
5694 7116 7118 28
5695 7116 7119 28
5696 7116 7120 28
5697 7121 7122 28
5698 7121 7123 28
5699 7121 7124 28
5700 7121 7125 28
5701 7126 7127 28
5702 7126 7128 28
5703 7126 7129 28
5704 7126 7130 28
5705 7131 7132 28
5706 7131 7133 28
5707 7131 7134 28
5708 7131 7135 28
5709 7136 7137 28
5710 7136 7138 28
5711 7136 7139 28
5712 7136 7140 28
5713 7141 7142 28
5714 7141 7143 28
5715 7141 7144 28
5716 7141 7145 28
5717 7146 7147 28
5718 7146 7148 28
5719 7146 7149 28
5720 7146 7150 28
5721 7151 7152 28
5722 7151 7153 28
5723 7151 7154 28
5724 7151 7155 28
5725 7156 7157 28
5726 7156 7158 28
5727 7156 7159 28
5728 7156 7160 28
5729 7161 7162 28
5730 7161 7163 28
5731 7161 7164 28
5732 7161 7165 28
5733 7166 7167 28
5734 7166 7168 28
5735 7166 7169 28
5736 7166 7170 28
5737 7171 7172 28
5738 7171 7173 28
5739 7171 7174 28
5740 7171 7175 28
5741 7176 7177 28
5742 7176 7178 28
5743 7176 7179 28
5744 7176 7180 28
5745 7181 7182 28
5746 7181 7183 28
5747 7181 7184 28
5748 7181 7185 28
5749 7186 7187 28
5750 7186 7188 28
5751 7186 7189 28
5752 7186 7190 28
5753 7191 7192 28
5754 7191 7193 28
5755 7191 7194 28
5756 7191 7195 28
5757 7196 7197 28
5758 7196 7198 28
5759 7196 7199 28
5760 7196 7200 28
5761 7201 7202 28
5762 7201 7203 28
5763 7201 7204 28
5764 7201 7205 28
5765 7206 7207 28
5766 7206 7208 28
5767 7206 7209 28
5768 7206 7210 28
5769 7211 7212 28
5770 7211 7213 28
5771 7211 7214 28
5772 7211 7215 28
5773 7216 7217 28
5774 7216 7218 28
5775 7216 7219 28
5776 7216 7220 28
5777 7221 7222 28
5778 7221 7223 28
5779 7221 7224 28
5780 7221 7225 28
5781 7226 7227 28
5782 7226 7228 28
5783 7226 7229 28
5784 7226 7230 28
5785 7231 7232 28
5786 7231 7233 28
5787 7231 7234 28
5788 7231 7235 28
5789 7236 7237 28
5790 7236 7238 28
5791 7236 7239 28
5792 7236 7240 28
5793 7241 7242 28
5794 7241 7243 28
5795 7241 7244 28
5796 7241 7245 28
5797 7246 7247 28
5798 7246 7248 28
5799 7246 7249 28
5800 7246 7250 28
5801 7251 7252 28
5802 7251 7253 28
5803 7251 7254 28
5804 7251 7255 28
5805 7256 7257 28
5806 7256 7258 28
5807 7256 7259 28
5808 7256 7260 28
5809 7261 7262 28
5810 7261 7263 28
5811 7261 7264 28
5812 7261 7265 28
5813 7266 7267 28
5814 7266 7268 28
5815 7266 7269 28
5816 7266 7270 28
5817 7271 7272 28
5818 7271 7273 28
5819 7271 7274 28
5820 7271 7275 28
5821 7276 7277 28
5822 7276 7278 28
5823 7276 7279 28
5824 7276 7280 28
5825 7281 7282 28
5826 7281 7283 28
5827 7281 7284 28
5828 7281 7285 28
5829 7286 7287 28
5830 7286 7288 28
5831 7286 7289 28
5832 7286 7290 28
5833 7291 7292 28
5834 7291 7293 28
5835 7291 7294 28
5836 7291 7295 28
5837 7296 7297 28
5838 7296 7298 28
5839 7296 7299 28
5840 7296 7300 28
5841 7301 7302 28
5842 7301 7303 28
5843 7301 7304 28
5844 7301 7305 28
5845 7306 7307 28
5846 7306 7308 28
5847 7306 7309 28
5848 7306 7310 28
5849 7311 7312 28
5850 7311 7313 28
5851 7311 7314 28
5852 7311 7315 28
5853 7316 7317 28
5854 7316 7318 28
5855 7316 7319 28
5856 7316 7320 28
5857 7321 7322 28
5858 7321 7323 28
5859 7321 7324 28
5860 7321 7325 28
5861 7326 7327 28
5862 7326 7328 28
5863 7326 7329 28
5864 7326 7330 28
5865 7331 7332 28
5866 7331 7333 28
5867 7331 7334 28
5868 7331 7335 28
5869 7336 7337 28
5870 7336 7338 28
5871 7336 7339 28
5872 7336 7340 28
5873 7341 7342 28
5874 7341 7343 28
5875 7341 7344 28
5876 7341 7345 28
5877 7346 7347 28
5878 7346 7348 28
5879 7346 7349 28
5880 7346 7350 28
5881 7351 7352 28
5882 7351 7353 28
5883 7351 7354 28
5884 7351 7355 28
5885 7356 7357 28
5886 7356 7358 28
5887 7356 7359 28
5888 7356 7360 28
5889 7361 7362 28
5890 7361 7363 28
5891 7361 7364 28
5892 7361 7365 28
5893 7366 7367 28
5894 7366 7368 28
5895 7366 7369 28
5896 7366 7370 28
5897 7371 7372 28
5898 7371 7373 28
5899 7371 7374 28
5900 7371 7375 28
5901 7376 7377 28
5902 7376 7378 28
5903 7376 7379 28
5904 7376 7380 28
5905 7381 7382 28
5906 7381 7383 28
5907 7381 7384 28
5908 7381 7385 28
5909 7386 7387 28
5910 7386 7388 28
5911 7386 7389 28
5912 7386 7390 28
5913 7391 7392 28
5914 7391 7393 28
5915 7391 7394 28
5916 7391 7395 28
5917 7396 7397 28
5918 7396 7398 28
5919 7396 7399 28
5920 7396 7400 28
5921 7401 7402 28
5922 7401 7403 28
5923 7401 7404 28
5924 7401 7405 28
5925 7406 7407 28
5926 7406 7408 28
5927 7406 7409 28
5928 7406 7410 28
5929 7411 7412 28
5930 7411 7413 28
5931 7411 7414 28
5932 7411 7415 28
5933 7416 7417 28
5934 7416 7418 28
5935 7416 7419 28
5936 7416 7420 28
5937 7421 7422 28
5938 7421 7423 28
5939 7421 7424 28
5940 7421 7425 28
5941 7426 7427 28
5942 7426 7428 28
5943 7426 7429 28
5944 7426 7430 28
5945 7431 7432 28
5946 7431 7433 28
5947 7431 7434 28
5948 7431 7435 28
5949 7436 7437 28
5950 7436 7438 28
5951 7436 7439 28
5952 7436 7440 28
5953 7441 7442 28
5954 7441 7443 28
5955 7441 7444 28
5956 7441 7445 28
5957 7446 7447 28
5958 7446 7448 28
5959 7446 7449 28
5960 7446 7450 28
5961 7451 7452 28
5962 7451 7453 28
5963 7451 7454 28
5964 7451 7455 28
5965 7456 7457 28
5966 7456 7458 28
5967 7456 7459 28
5968 7456 7460 28
5969 7461 7462 28
5970 7461 7463 28
5971 7461 7464 28
5972 7461 7465 28
5973 7466 7467 28
5974 7466 7468 28
5975 7466 7469 28
5976 7466 7470 28
5977 7471 7472 28
5978 7471 7473 28
5979 7471 7474 28
5980 7471 7475 28
5981 7476 7477 28
5982 7476 7478 28
5983 7476 7479 28
5984 7476 7480 28
5985 7481 7482 28
5986 7481 7483 28
5987 7481 7484 28
5988 7481 7485 28
5989 7486 7487 28
5990 7486 7488 28
5991 7486 7489 28
5992 7486 7490 28
5993 7491 7492 28
5994 7491 7493 28
5995 7491 7494 28
5996 7491 7495 28
5997 7496 7497 28
5998 7496 7498 28
5999 7496 7499 28
6000 7496 7500 28
6001 7501 7502 28
6002 7501 7503 28
6003 7501 7504 28
6004 7501 7505 28
6005 7506 7507 28
6006 7506 7508 28
6007 7506 7509 28
6008 7506 7510 28
6009 7511 7512 28
6010 7511 7513 28
6011 7511 7514 28
6012 7511 7515 28
6013 7516 7517 28
6014 7516 7518 28
6015 7516 7519 28
6016 7516 7520 28
6017 7521 7522 28
6018 7521 7523 28
6019 7521 7524 28
6020 7521 7525 28
6021 7526 7527 28
6022 7526 7528 28
6023 7526 7529 28
6024 7526 7530 28
6025 7531 7532 28
6026 7531 7533 28
6027 7531 7534 28
6028 7531 7535 28
6029 7536 7537 28
6030 7536 7538 28
6031 7536 7539 28
6032 7536 7540 28
6033 7541 7542 28
6034 7541 7543 28
6035 7541 7544 28
6036 7541 7545 28
6037 7546 7547 28
6038 7546 7548 28
6039 7546 7549 28
6040 7546 7550 28
6041 7551 7552 28
6042 7551 7553 28
6043 7551 7554 28
6044 7551 7555 28
6045 7556 7557 28
6046 7556 7558 28
6047 7556 7559 28
6048 7556 7560 28
6049 7561 7562 28
6050 7561 7563 28
6051 7561 7564 28
6052 7561 7565 28
6053 7566 7567 28
6054 7566 7568 28
6055 7566 7569 28
6056 7566 7570 28
6057 7571 7572 28
6058 7571 7573 28
6059 7571 7574 28
6060 7571 7575 28
6061 7576 7577 28
6062 7576 7578 28
6063 7576 7579 28
6064 7576 7580 28
6065 7581 7582 28
6066 7581 7583 28
6067 7581 7584 28
6068 7581 7585 28
6069 7586 7587 28
6070 7586 7588 28
6071 7586 7589 28
6072 7586 7590 28
6073 7591 7592 28
6074 7591 7593 28
6075 7591 7594 28
6076 7591 7595 28
6077 7596 7597 28
6078 7596 7598 28
6079 7596 7599 28
6080 7596 7600 28
6081 7601 7602 28
6082 7601 7603 28
6083 7601 7604 28
6084 7601 7605 28
6085 7606 7607 28
6086 7606 7608 28
6087 7606 7609 28
6088 7606 7610 28
6089 7611 7612 28
6090 7611 7613 28
6091 7611 7614 28
6092 7611 7615 28
6093 7616 7617 28
6094 7616 7618 28
6095 7616 7619 28
6096 7616 7620 28
6097 7621 7622 28
6098 7621 7623 28
6099 7621 7624 28
6100 7621 7625 28
6101 7626 7627 28
6102 7626 7628 28
6103 7626 7629 28
6104 7626 7630 28
6105 7631 7632 28
6106 7631 7633 28
6107 7631 7634 28
6108 7631 7635 28
6109 7636 7637 28
6110 7636 7638 28
6111 7636 7639 28
6112 7636 7640 28
6113 7641 7642 28
6114 7641 7643 28
6115 7641 7644 28
6116 7641 7645 28
6117 7646 7647 28
6118 7646 7648 28
6119 7646 7649 28
6120 7646 7650 28
6121 7651 7652 28
6122 7651 7653 28
6123 7651 7654 28
6124 7651 7655 28
6125 7656 7657 28
6126 7656 7658 28
6127 7656 7659 28
6128 7656 7660 28
6129 7661 7662 28
6130 7661 7663 28
6131 7661 7664 28
6132 7661 7665 28
6133 7666 7667 28
6134 7666 7668 28
6135 7666 7669 28
6136 7666 7670 28
6137 7671 7672 28
6138 7671 7673 28
6139 7671 7674 28
6140 7671 7675 28
6141 7676 7677 28
6142 7676 7678 28
6143 7676 7679 28
6144 7676 7680 28
6145 7681 7682 28
6146 7681 7683 28
6147 7681 7684 28
6148 7681 7685 28
6149 7686 7687 28
6150 7686 7688 28
6151 7686 7689 28
6152 7686 7690 28
6153 7691 7692 28
6154 7691 7693 28
6155 7691 7694 28
6156 7691 7695 28
6157 7696 7697 28
6158 7696 7698 28
6159 7696 7699 28
6160 7696 7700 28
6161 7701 7702 28
6162 7701 7703 28
6163 7701 7704 28
6164 7701 7705 28
6165 7706 7707 28
6166 7706 7708 28
6167 7706 7709 28
6168 7706 7710 28
6169 7711 7712 28
6170 7711 7713 28
6171 7711 7714 28
6172 7711 7715 28
6173 7716 7717 28
6174 7716 7718 28
6175 7716 7719 28
6176 7716 7720 28
6177 7721 7722 28
6178 7721 7723 28
6179 7721 7724 28
6180 7721 7725 28
6181 7726 7727 28
6182 7726 7728 28
6183 7726 7729 28
6184 7726 7730 28
6185 7731 7732 28
6186 7731 7733 28
6187 7731 7734 28
6188 7731 7735 28
6189 7736 7737 28
6190 7736 7738 28
6191 7736 7739 28
6192 7736 7740 28
6193 7741 7742 28
6194 7741 7743 28
6195 7741 7744 28
6196 7741 7745 28
6197 7746 7747 28
6198 7746 7748 28
6199 7746 7749 28
6200 7746 7750 28
6201 7751 7752 28
6202 7751 7753 28
6203 7751 7754 28
6204 7751 7755 28
6205 7756 7757 28
6206 7756 7758 28
6207 7756 7759 28
6208 7756 7760 28
6209 7761 7762 28
6210 7761 7763 28
6211 7761 7764 28
6212 7761 7765 28
6213 7766 7767 28
6214 7766 7768 28
6215 7766 7769 28
6216 7766 7770 28
6217 7771 7772 28
6218 7771 7773 28
6219 7771 7774 28
6220 7771 7775 28
6221 7776 7777 28
6222 7776 7778 28
6223 7776 7779 28
6224 7776 7780 28
6225 7781 7782 28
6226 7781 7783 28
6227 7781 7784 28
6228 7781 7785 28
6229 7786 7787 28
6230 7786 7788 28
6231 7786 7789 28
6232 7786 7790 28
6233 7791 7792 28
6234 7791 7793 28
6235 7791 7794 28
6236 7791 7795 28
6237 7796 7797 28
6238 7796 7798 28
6239 7796 7799 28
6240 7796 7800 28
6241 7801 7802 28
6242 7801 7803 28
6243 7801 7804 28
6244 7801 7805 28
6245 7806 7807 28
6246 7806 7808 28
6247 7806 7809 28
6248 7806 7810 28
6249 7811 7812 28
6250 7811 7813 28
6251 7811 7814 28
6252 7811 7815 28
6253 7816 7817 28
6254 7816 7818 28
6255 7816 7819 28
6256 7816 7820 28
6257 7821 7822 28
6258 7821 7823 28
6259 7821 7824 28
6260 7821 7825 28
6261 7826 7827 28
6262 7826 7828 28
6263 7826 7829 28
6264 7826 7830 28
6265 7831 7832 28
6266 7831 7833 28
6267 7831 7834 28
6268 7831 7835 28
6269 7836 7837 28
6270 7836 7838 28
6271 7836 7839 28
6272 7836 7840 28
6273 7841 7842 28
6274 7841 7843 28
6275 7841 7844 28
6276 7841 7845 28
6277 7846 7847 28
6278 7846 7848 28
6279 7846 7849 28
6280 7846 7850 28
6281 7851 7852 28
6282 7851 7853 28
6283 7851 7854 28
6284 7851 7855 28
6285 7856 7857 28
6286 7856 7858 28
6287 7856 7859 28
6288 7856 7860 28
6289 7861 7862 28
6290 7861 7863 28
6291 7861 7864 28
6292 7861 7865 28
6293 7866 7867 28
6294 7866 7868 28
6295 7866 7869 28
6296 7866 7870 28
6297 7871 7872 28
6298 7871 7873 28
6299 7871 7874 28
6300 7871 7875 28
6301 7876 7877 28
6302 7876 7878 28
6303 7876 7879 28
6304 7876 7880 28
6305 7881 7882 28
6306 7881 7883 28
6307 7881 7884 28
6308 7881 7885 28
6309 7886 7887 28
6310 7886 7888 28
6311 7886 7889 28
6312 7886 7890 28
6313 7891 7892 28
6314 7891 7893 28
6315 7891 7894 28
6316 7891 7895 28
6317 7896 7897 28
6318 7896 7898 28
6319 7896 7899 28
6320 7896 7900 28
6321 7901 7902 28
6322 7901 7903 28
6323 7901 7904 28
6324 7901 7905 28
6325 7906 7907 28
6326 7906 7908 28
6327 7906 7909 28
6328 7906 7910 28
6329 7911 7912 28
6330 7911 7913 28
6331 7911 7914 28
6332 7911 7915 28
6333 7916 7917 28
6334 7916 7918 28
6335 7916 7919 28
6336 7916 7920 28
6337 7921 7922 28
6338 7921 7923 28
6339 7921 7924 28
6340 7921 7925 28
6341 7926 7927 28
6342 7926 7928 28
6343 7926 7929 28
6344 7926 7930 28
6345 7931 7932 28
6346 7931 7933 28
6347 7931 7934 28
6348 7931 7935 28
6349 7936 7937 28
6350 7936 7938 28
6351 7936 7939 28
6352 7936 7940 28
6353 7941 7942 28
6354 7941 7943 28
6355 7941 7944 28
6356 7941 7945 28
6357 7946 7947 28
6358 7946 7948 28
6359 7946 7949 28
6360 7946 7950 28
6361 7951 7952 28
6362 7951 7953 28
6363 7951 7954 28
6364 7951 7955 28
6365 7956 7957 28
6366 7956 7958 28
6367 7956 7959 28
6368 7956 7960 28
6369 7961 7962 28
6370 7961 7963 28
6371 7961 7964 28
6372 7961 7965 28
6373 7966 7967 28
6374 7966 7968 28
6375 7966 7969 28
6376 7966 7970 28
6377 7971 7972 28
6378 7971 7973 28
6379 7971 7974 28
6380 7971 7975 28
6381 7976 7977 28
6382 7976 7978 28
6383 7976 7979 28
6384 7976 7980 28
6385 7981 7982 28
6386 7981 7983 28
6387 7981 7984 28
6388 7981 7985 28
6389 7986 7987 28
6390 7986 7988 28
6391 7986 7989 28
6392 7986 7990 28
6393 7991 7992 28
6394 7991 7993 28
6395 7991 7994 28
6396 7991 7995 28
6397 7996 7997 28
6398 7996 7998 28
6399 7996 7999 28
6400 7996 8000 28
6401 8001 8002 28
6402 8001 8003 28
6403 8001 8004 28
6404 8001 8005 28
6405 8006 8007 28
6406 8006 8008 28
6407 8006 8009 28
6408 8006 8010 28
6409 8011 8012 28
6410 8011 8013 28
6411 8011 8014 28
6412 8011 8015 28
6413 8016 8017 28
6414 8016 8018 28
6415 8016 8019 28
6416 8016 8020 28
6417 8021 8022 28
6418 8021 8023 28
6419 8021 8024 28
6420 8021 8025 28
6421 8026 8027 28
6422 8026 8028 28
6423 8026 8029 28
6424 8026 8030 28
6425 8031 8032 28
6426 8031 8033 28
6427 8031 8034 28
6428 8031 8035 28
6429 8036 8037 28
6430 8036 8038 28
6431 8036 8039 28
6432 8036 8040 28
6433 8041 8042 28
6434 8041 8043 28
6435 8041 8044 28
6436 8041 8045 28
6437 8046 8047 28
6438 8046 8048 28
6439 8046 8049 28
6440 8046 8050 28
6441 8051 8052 28
6442 8051 8053 28
6443 8051 8054 28
6444 8051 8055 28
6445 8056 8057 28
6446 8056 8058 28
6447 8056 8059 28
6448 8056 8060 28
6449 8061 8062 28
6450 8061 8063 28
6451 8061 8064 28
6452 8061 8065 28
6453 8066 8067 28
6454 8066 8068 28
6455 8066 8069 28
6456 8066 8070 28
6457 8071 8072 28
6458 8071 8073 28
6459 8071 8074 28
6460 8071 8075 28
6461 8076 8077 28
6462 8076 8078 28
6463 8076 8079 28
6464 8076 8080 28
6465 8081 8082 28
6466 8081 8083 28
6467 8081 8084 28
6468 8081 8085 28
6469 8086 8087 28
6470 8086 8088 28
6471 8086 8089 28
6472 8086 8090 28
6473 8091 8092 28
6474 8091 8093 28
6475 8091 8094 28
6476 8091 8095 28
6477 8096 8097 28
6478 8096 8098 28
6479 8096 8099 28
6480 8096 8100 28
6481 8101 8102 28
6482 8101 8103 28
6483 8101 8104 28
6484 8101 8105 28
6485 8106 8107 28
6486 8106 8108 28
6487 8106 8109 28
6488 8106 8110 28
6489 8111 8112 28
6490 8111 8113 28
6491 8111 8114 28
6492 8111 8115 28
6493 8116 8117 28
6494 8116 8118 28
6495 8116 8119 28
6496 8116 8120 28
6497 8121 8122 28
6498 8121 8123 28
6499 8121 8124 28
6500 8121 8125 28
6501 8126 8127 28
6502 8126 8128 28
6503 8126 8129 28
6504 8126 8130 28
6505 8131 8132 28
6506 8131 8133 28
6507 8131 8134 28
6508 8131 8135 28
6509 8136 8137 28
6510 8136 8138 28
6511 8136 8139 28
6512 8136 8140 28
6513 8141 8142 28
6514 8141 8143 28
6515 8141 8144 28
6516 8141 8145 28
6517 8146 8147 28
6518 8146 8148 28
6519 8146 8149 28
6520 8146 8150 28
6521 8151 8152 28
6522 8151 8153 28
6523 8151 8154 28
6524 8151 8155 28
6525 8156 8157 28
6526 8156 8158 28
6527 8156 8159 28
6528 8156 8160 28
6529 8161 8162 28
6530 8161 8163 28
6531 8161 8164 28
6532 8161 8165 28
6533 8166 8167 28
6534 8166 8168 28
6535 8166 8169 28
6536 8166 8170 28
6537 8171 8172 28
6538 8171 8173 28
6539 8171 8174 28
6540 8171 8175 28
6541 8176 8177 28
6542 8176 8178 28
6543 8176 8179 28
6544 8176 8180 28
6545 8181 8182 28
6546 8181 8183 28
6547 8181 8184 28
6548 8181 8185 28
6549 8186 8187 28
6550 8186 8188 28
6551 8186 8189 28
6552 8186 8190 28
6553 8191 8192 28
6554 8191 8193 28
6555 8191 8194 28
6556 8191 8195 28
6557 8196 8197 28
6558 8196 8198 28
6559 8196 8199 28
6560 8196 8200 28
6561 8201 8202 28
6562 8201 8203 28
6563 8201 8204 28
6564 8201 8205 28
6565 8206 8207 28
6566 8206 8208 28
6567 8206 8209 28
6568 8206 8210 28
6569 8211 8212 28
6570 8211 8213 28
6571 8211 8214 28
6572 8211 8215 28
6573 8216 8217 28
6574 8216 8218 28
6575 8216 8219 28
6576 8216 8220 28
6577 8221 8222 28
6578 8221 8223 28
6579 8221 8224 28
6580 8221 8225 28
6581 8226 8227 28
6582 8226 8228 28
6583 8226 8229 28
6584 8226 8230 28
6585 8231 8232 28
6586 8231 8233 28
6587 8231 8234 28
6588 8231 8235 28
6589 8236 8237 28
6590 8236 8238 28
6591 8236 8239 28
6592 8236 8240 28
6593 8241 8242 28
6594 8241 8243 28
6595 8241 8244 28
6596 8241 8245 28
6597 8246 8247 28
6598 8246 8248 28
6599 8246 8249 28
6600 8246 8250 28
6601 8251 8252 28
6602 8251 8253 28
6603 8251 8254 28
6604 8251 8255 28
6605 8256 8257 28
6606 8256 8258 28
6607 8256 8259 28
6608 8256 8260 28
6609 8261 8262 28
6610 8261 8263 28
6611 8261 8264 28
6612 8261 8265 28
6613 8266 8267 28
6614 8266 8268 28
6615 8266 8269 28
6616 8266 8270 28
6617 8271 8272 28
6618 8271 8273 28
6619 8271 8274 28
6620 8271 8275 28
6621 8276 8277 28
6622 8276 8278 28
6623 8276 8279 28
6624 8276 8280 28
6625 8281 8282 28
6626 8281 8283 28
6627 8281 8284 28
6628 8281 8285 28
6629 8286 8287 28
6630 8286 8288 28
6631 8286 8289 28
6632 8286 8290 28
6633 8291 8292 28
6634 8291 8293 28
6635 8291 8294 28
6636 8291 8295 28
6637 8296 8297 28
6638 8296 8298 28
6639 8296 8299 28
6640 8296 8300 28
6641 8301 8302 28
6642 8301 8303 28
6643 8301 8304 28
6644 8301 8305 28
6645 8306 8307 28
6646 8306 8308 28
6647 8306 8309 28
6648 8306 8310 28
6649 8311 8312 28
6650 8311 8313 28
6651 8311 8314 28
6652 8311 8315 28
6653 8316 8317 28
6654 8316 8318 28
6655 8316 8319 28
6656 8316 8320 28
6657 8321 8322 28
6658 8321 8323 28
6659 8321 8324 28
6660 8321 8325 28
6661 8326 8327 28
6662 8326 8328 28
6663 8326 8329 28
6664 8326 8330 28
6665 8331 8332 28
6666 8331 8333 28
6667 8331 8334 28
6668 8331 8335 28
6669 8336 8337 28
6670 8336 8338 28
6671 8336 8339 28
6672 8336 8340 28
6673 8341 8342 28
6674 8341 8343 28
6675 8341 8344 28
6676 8341 8345 28
6677 8346 8347 28
6678 8346 8348 28
6679 8346 8349 28
6680 8346 8350 28
6681 8351 8352 28
6682 8351 8353 28
6683 8351 8354 28
6684 8351 8355 28
6685 8356 8357 28
6686 8356 8358 28
6687 8356 8359 28
6688 8356 8360 28
6689 8361 8362 28
6690 8361 8363 28
6691 8361 8364 28
6692 8361 8365 28
6693 8366 8367 28
6694 8366 8368 28
6695 8366 8369 28
6696 8366 8370 28
6697 8371 8372 28
6698 8371 8373 28
6699 8371 8374 28
6700 8371 8375 28
6701 8376 8377 28
6702 8376 8378 28
6703 8376 8379 28
6704 8376 8380 28
6705 8381 8382 28
6706 8381 8383 28
6707 8381 8384 28
6708 8381 8385 28
6709 8386 8387 28
6710 8386 8388 28
6711 8386 8389 28
6712 8386 8390 28
6713 8391 8392 28
6714 8391 8393 28
6715 8391 8394 28
6716 8391 8395 28
6717 8396 8397 28
6718 8396 8398 28
6719 8396 8399 28
6720 8396 8400 28
6721 8401 8402 28
6722 8401 8403 28
6723 8401 8404 28
6724 8401 8405 28
6725 8406 8407 28
6726 8406 8408 28
6727 8406 8409 28
6728 8406 8410 28
6729 8411 8412 28
6730 8411 8413 28
6731 8411 8414 28
6732 8411 8415 28
6733 8416 8417 28
6734 8416 8418 28
6735 8416 8419 28
6736 8416 8420 28
6737 8421 8422 28
6738 8421 8423 28
6739 8421 8424 28
6740 8421 8425 28
6741 8426 8427 28
6742 8426 8428 28
6743 8426 8429 28
6744 8426 8430 28
6745 8431 8432 28
6746 8431 8433 28
6747 8431 8434 28
6748 8431 8435 28
6749 8436 8437 28
6750 8436 8438 28
6751 8436 8439 28
6752 8436 8440 28
6753 8441 8442 28
6754 8441 8443 28
6755 8441 8444 28
6756 8441 8445 28
6757 8446 8447 28
6758 8446 8448 28
6759 8446 8449 28
6760 8446 8450 28
6761 8451 8452 28
6762 8451 8453 28
6763 8451 8454 28
6764 8451 8455 28
6765 8456 8457 28
6766 8456 8458 28
6767 8456 8459 28
6768 8456 8460 28
6769 8461 8462 28
6770 8461 8463 28
6771 8461 8464 28
6772 8461 8465 28
6773 8466 8467 28
6774 8466 8468 28
6775 8466 8469 28
6776 8466 8470 28
6777 8471 8472 28
6778 8471 8473 28
6779 8471 8474 28
6780 8471 8475 28
6781 8476 8477 28
6782 8476 8478 28
6783 8476 8479 28
6784 8476 8480 28
6785 8481 8482 28
6786 8481 8483 28
6787 8481 8484 28
6788 8481 8485 28
6789 8486 8487 28
6790 8486 8488 28
6791 8486 8489 28
6792 8486 8490 28
6793 8491 8492 28
6794 8491 8493 28
6795 8491 8494 28
6796 8491 8495 28
6797 8496 8497 28
6798 8496 8498 28
6799 8496 8499 28
6800 8496 8500 28
6801 8501 8502 28
6802 8501 8503 28
6803 8501 8504 28
6804 8501 8505 28
6805 8506 8507 28
6806 8506 8508 28
6807 8506 8509 28
6808 8506 8510 28
6809 8511 8512 28
6810 8511 8513 28
6811 8511 8514 28
6812 8511 8515 28
6813 8516 8517 28
6814 8516 8518 28
6815 8516 8519 28
6816 8516 8520 28
6817 8521 8522 28
6818 8521 8523 28
6819 8521 8524 28
6820 8521 8525 28
6821 8526 8527 28
6822 8526 8528 28
6823 8526 8529 28
6824 8526 8530 28
6825 8531 8532 28
6826 8531 8533 28
6827 8531 8534 28
6828 8531 8535 28
6829 8536 8537 28
6830 8536 8538 28
6831 8536 8539 28
6832 8536 8540 28
6833 8541 8542 28
6834 8541 8543 28
6835 8541 8544 28
6836 8541 8545 28
6837 8546 8547 28
6838 8546 8548 28
6839 8546 8549 28
6840 8546 8550 28
6841 8551 8552 28
6842 8551 8553 28
6843 8551 8554 28
6844 8551 8555 28
6845 8556 8557 28
6846 8556 8558 28
6847 8556 8559 28
6848 8556 8560 28
6849 8561 8562 28
6850 8561 8563 28
6851 8561 8564 28
6852 8561 8565 28
6853 8566 8567 28
6854 8566 8568 28
6855 8566 8569 28
6856 8566 8570 28
6857 8571 8572 28
6858 8571 8573 28
6859 8571 8574 28
6860 8571 8575 28
6861 8576 8577 28
6862 8576 8578 28
6863 8576 8579 28
6864 8576 8580 28
6865 8581 8582 28
6866 8581 8583 28
6867 8581 8584 28
6868 8581 8585 28
6869 8586 8587 28
6870 8586 8588 28
6871 8586 8589 28
6872 8586 8590 28
6873 8591 8592 28
6874 8591 8593 28
6875 8591 8594 28
6876 8591 8595 28
6877 8596 8597 28
6878 8596 8598 28
6879 8596 8599 28
6880 8596 8600 28
6881 8601 8602 28
6882 8601 8603 28
6883 8601 8604 28
6884 8601 8605 28
6885 8606 8607 28
6886 8606 8608 28
6887 8606 8609 28
6888 8606 8610 28
6889 8611 8612 28
6890 8611 8613 28
6891 8611 8614 28
6892 8611 8615 28
6893 8616 8617 28
6894 8616 8618 28
6895 8616 8619 28
6896 8616 8620 28
6897 8621 8622 28
6898 8621 8623 28
6899 8621 8624 28
6900 8621 8625 28
6901 8626 8627 28
6902 8626 8628 28
6903 8626 8629 28
6904 8626 8630 28
6905 8631 8632 28
6906 8631 8633 28
6907 8631 8634 28
6908 8631 8635 28
6909 8636 8637 28
6910 8636 8638 28
6911 8636 8639 28
6912 8636 8640 28
6913 8641 8642 28
6914 8641 8643 28
6915 8641 8644 28
6916 8641 8645 28
6917 8646 8647 28
6918 8646 8648 28
6919 8646 8649 28
6920 8646 8650 28
6921 8651 8652 28
6922 8651 8653 28
6923 8651 8654 28
6924 8651 8655 28
6925 8656 8657 28
6926 8656 8658 28
6927 8656 8659 28
6928 8656 8660 28
6929 8661 8662 28
6930 8661 8663 28
6931 8661 8664 28
6932 8661 8665 28
6933 8666 8667 28
6934 8666 8668 28
6935 8666 8669 28
6936 8666 8670 28
6937 8671 8672 28
6938 8671 8673 28
6939 8671 8674 28
6940 8671 8675 28
6941 8676 8677 28
6942 8676 8678 28
6943 8676 8679 28
6944 8676 8680 28
6945 8681 8682 28
6946 8681 8683 28
6947 8681 8684 28
6948 8681 8685 28
6949 8686 8687 28
6950 8686 8688 28
6951 8686 8689 28
6952 8686 8690 28
6953 8691 8692 28
6954 8691 8693 28
6955 8691 8694 28
6956 8691 8695 28
6957 8696 8697 28
6958 8696 8698 28
6959 8696 8699 28
6960 8696 8700 28
6961 8701 8702 28
6962 8701 8703 28
6963 8701 8704 28
6964 8701 8705 28
6965 8706 8707 28
6966 8706 8708 28
6967 8706 8709 28
6968 8706 8710 28
6969 8711 8712 28
6970 8711 8713 28
6971 8711 8714 28
6972 8711 8715 28
6973 8716 8717 28
6974 8716 8718 28
6975 8716 8719 28
6976 8716 8720 28
6977 8721 8722 28
6978 8721 8723 28
6979 8721 8724 28
6980 8721 8725 28
6981 8726 8727 28
6982 8726 8728 28
6983 8726 8729 28
6984 8726 8730 28
6985 8731 8732 28
6986 8731 8733 28
6987 8731 8734 28
6988 8731 8735 28
6989 8736 8737 28
6990 8736 8738 28
6991 8736 8739 28
6992 8736 8740 28
6993 8741 8742 28
6994 8741 8743 28
6995 8741 8744 28
6996 8741 8745 28
6997 8746 8747 28
6998 8746 8748 28
6999 8746 8749 28
7000 8746 8750 28
7001 8751 8752 28
7002 8751 8753 28
7003 8751 8754 28
7004 8751 8755 28
7005 8756 8757 28
7006 8756 8758 28
7007 8756 8759 28
7008 8756 8760 28
7009 8761 8762 28
7010 8761 8763 28
7011 8761 8764 28
7012 8761 8765 28
7013 8766 8767 28
7014 8766 8768 28
7015 8766 8769 28
7016 8766 8770 28
7017 8771 8772 28
7018 8771 8773 28
7019 8771 8774 28
7020 8771 8775 28
7021 8776 8777 28
7022 8776 8778 28
7023 8776 8779 28
7024 8776 8780 28
7025 8781 8782 28
7026 8781 8783 28
7027 8781 8784 28
7028 8781 8785 28
7029 8786 8787 28
7030 8786 8788 28
7031 8786 8789 28
7032 8786 8790 28
7033 8791 8792 28
7034 8791 8793 28
7035 8791 8794 28
7036 8791 8795 28
7037 8796 8797 28
7038 8796 8798 28
7039 8796 8799 28
7040 8796 8800 28
7041 8801 8802 28
7042 8801 8803 28
7043 8801 8804 28
7044 8801 8805 28
7045 8806 8807 28
7046 8806 8808 28
7047 8806 8809 28
7048 8806 8810 28
7049 8811 8812 28
7050 8811 8813 28
7051 8811 8814 28
7052 8811 8815 28
7053 8816 8817 28
7054 8816 8818 28
7055 8816 8819 28
7056 8816 8820 28
7057 8821 8822 28
7058 8821 8823 28
7059 8821 8824 28
7060 8821 8825 28
7061 8826 8827 28
7062 8826 8828 28
7063 8826 8829 28
7064 8826 8830 28
7065 8831 8832 28
7066 8831 8833 28
7067 8831 8834 28
7068 8831 8835 28
7069 8836 8837 28
7070 8836 8838 28
7071 8836 8839 28
7072 8836 8840 28
7073 8841 8842 28
7074 8841 8843 28
7075 8841 8844 28
7076 8841 8845 28
7077 8846 8847 28
7078 8846 8848 28
7079 8846 8849 28
7080 8846 8850 28
7081 8851 8852 28
7082 8851 8853 28
7083 8851 8854 28
7084 8851 8855 28
7085 8856 8857 28
7086 8856 8858 28
7087 8856 8859 28
7088 8856 8860 28
7089 8861 8862 28
7090 8861 8863 28
7091 8861 8864 28
7092 8861 8865 28
7093 8866 8867 28
7094 8866 8868 28
7095 8866 8869 28
7096 8866 8870 28
7097 8871 8872 28
7098 8871 8873 28
7099 8871 8874 28
7100 8871 8875 28
7101 8876 8877 28
7102 8876 8878 28
7103 8876 8879 28
7104 8876 8880 28
7105 8881 8882 28
7106 8881 8883 28
7107 8881 8884 28
7108 8881 8885 28
7109 8886 8887 28
7110 8886 8888 28
7111 8886 8889 28
7112 8886 8890 28
7113 8891 8892 28
7114 8891 8893 28
7115 8891 8894 28
7116 8891 8895 28
7117 8896 8897 28
7118 8896 8898 28
7119 8896 8899 28
7120 8896 8900 28
7121 8901 8902 28
7122 8901 8903 28
7123 8901 8904 28
7124 8901 8905 28
7125 8906 8907 28
7126 8906 8908 28
7127 8906 8909 28
7128 8906 8910 28
7129 8911 8912 28
7130 8911 8913 28
7131 8911 8914 28
7132 8911 8915 28
7133 8916 8917 28
7134 8916 8918 28
7135 8916 8919 28
7136 8916 8920 28
7137 8921 8922 28
7138 8921 8923 28
7139 8921 8924 28
7140 8921 8925 28
7141 8926 8927 28
7142 8926 8928 28
7143 8926 8929 28
7144 8926 8930 28
7145 8931 8932 28
7146 8931 8933 28
7147 8931 8934 28
7148 8931 8935 28
7149 8936 8937 28
7150 8936 8938 28
7151 8936 8939 28
7152 8936 8940 28
7153 8941 8942 28
7154 8941 8943 28
7155 8941 8944 28
7156 8941 8945 28
7157 8946 8947 28
7158 8946 8948 28
7159 8946 8949 28
7160 8946 8950 28
7161 8951 8952 28
7162 8951 8953 28
7163 8951 8954 28
7164 8951 8955 28
7165 8956 8957 28
7166 8956 8958 28
7167 8956 8959 28
7168 8956 8960 28
7169 8961 8962 28
7170 8961 8963 28
7171 8961 8964 28
7172 8961 8965 28
7173 8966 8967 28
7174 8966 8968 28
7175 8966 8969 28
7176 8966 8970 28
7177 8971 8972 28
7178 8971 8973 28
7179 8971 8974 28
7180 8971 8975 28
7181 8976 8977 28
7182 8976 8978 28
7183 8976 8979 28
7184 8976 8980 28
7185 8981 8982 28
7186 8981 8983 28
7187 8981 8984 28
7188 8981 8985 28
7189 8986 8987 28
7190 8986 8988 28
7191 8986 8989 28
7192 8986 8990 28
7193 8991 8992 28
7194 8991 8993 28
7195 8991 8994 28
7196 8991 8995 28
7197 8996 8997 28
7198 8996 8998 28
7199 8996 8999 28
7200 8996 9000 28
7201 9001 9002 28
7202 9001 9003 28
7203 9001 9004 28
7204 9001 9005 28
7205 9006 9007 28
7206 9006 9008 28
7207 9006 9009 28
7208 9006 9010 28
7209 9011 9012 28
7210 9011 9013 28
7211 9011 9014 28
7212 9011 9015 28
7213 9016 9017 28
7214 9016 9018 28
7215 9016 9019 28
7216 9016 9020 28
7217 9021 9022 28
7218 9021 9023 28
7219 9021 9024 28
7220 9021 9025 28
7221 9026 9027 28
7222 9026 9028 28
7223 9026 9029 28
7224 9026 9030 28
7225 9031 9032 28
7226 9031 9033 28
7227 9031 9034 28
7228 9031 9035 28
7229 9036 9037 28
7230 9036 9038 28
7231 9036 9039 28
7232 9036 9040 28
7233 9041 9042 28
7234 9041 9043 28
7235 9041 9044 28
7236 9041 9045 28
7237 9046 9047 28
7238 9046 9048 28
7239 9046 9049 28
7240 9046 9050 28
7241 9051 9052 28
7242 9051 9053 28
7243 9051 9054 28
7244 9051 9055 28
7245 9056 9057 28
7246 9056 9058 28
7247 9056 9059 28
7248 9056 9060 28
7249 9061 9062 28
7250 9061 9063 28
7251 9061 9064 28
7252 9061 9065 28
7253 9066 9067 28
7254 9066 9068 28
7255 9066 9069 28
7256 9066 9070 28
7257 9071 9072 28
7258 9071 9073 28
7259 9071 9074 28
7260 9071 9075 28
7261 9076 9077 28
7262 9076 9078 28
7263 9076 9079 28
7264 9076 9080 28
7265 9081 9082 28
7266 9081 9083 28
7267 9081 9084 28
7268 9081 9085 28
7269 9086 9087 28
7270 9086 9088 28
7271 9086 9089 28
7272 9086 9090 28
7273 9091 9092 28
7274 9091 9093 28
7275 9091 9094 28
7276 9091 9095 28
7277 9096 9097 28
7278 9096 9098 28
7279 9096 9099 28
7280 9096 9100 28
7281 9101 9102 28
7282 9101 9103 28
7283 9101 9104 28
7284 9101 9105 28
7285 9106 9107 28
7286 9106 9108 28
7287 9106 9109 28
7288 9106 9110 28
7289 9111 9112 28
7290 9111 9113 28
7291 9111 9114 28
7292 9111 9115 28
7293 9116 9117 28
7294 9116 9118 28
7295 9116 9119 28
7296 9116 9120 28
7297 9121 9122 28
7298 9121 9123 28
7299 9121 9124 28
7300 9121 9125 28
7301 9126 9127 28
7302 9126 9128 28
7303 9126 9129 28
7304 9126 9130 28
7305 9131 9132 28
7306 9131 9133 28
7307 9131 9134 28
7308 9131 9135 28
7309 9136 9137 28
7310 9136 9138 28
7311 9136 9139 28
7312 9136 9140 28
7313 9141 9142 28
7314 9141 9143 28
7315 9141 9144 28
7316 9141 9145 28
7317 9146 9147 28
7318 9146 9148 28
7319 9146 9149 28
7320 9146 9150 28
7321 9151 9152 28
7322 9151 9153 28
7323 9151 9154 28
7324 9151 9155 28
7325 9156 9157 28
7326 9156 9158 28
7327 9156 9159 28
7328 9156 9160 28
7329 9161 9162 28
7330 9161 9163 28
7331 9161 9164 28
7332 9161 9165 28
7333 9166 9167 28
7334 9166 9168 28
7335 9166 9169 28
7336 9166 9170 28
7337 9171 9172 28
7338 9171 9173 28
7339 9171 9174 28
7340 9171 9175 28
7341 9176 9177 28
7342 9176 9178 28
7343 9176 9179 28
7344 9176 9180 28
7345 9181 9182 28
7346 9181 9183 28
7347 9181 9184 28
7348 9181 9185 28
7349 9186 9187 28
7350 9186 9188 28
7351 9186 9189 28
7352 9186 9190 28
7353 9191 9192 28
7354 9191 9193 28
7355 9191 9194 28
7356 9191 9195 28
7357 9196 9197 28
7358 9196 9198 28
7359 9196 9199 28
7360 9196 9200 28
7361 9201 9202 28
7362 9201 9203 28
7363 9201 9204 28
7364 9201 9205 28
7365 9206 9207 28
7366 9206 9208 28
7367 9206 9209 28
7368 9206 9210 28
7369 9211 9212 28
7370 9211 9213 28
7371 9211 9214 28
7372 9211 9215 28
7373 9216 9217 28
7374 9216 9218 28
7375 9216 9219 28
7376 9216 9220 28
7377 9221 9222 28
7378 9221 9223 28
7379 9221 9224 28
7380 9221 9225 28
7381 9226 9227 28
7382 9226 9228 28
7383 9226 9229 28
7384 9226 9230 28
7385 9231 9232 28
7386 9231 9233 28
7387 9231 9234 28
7388 9231 9235 28
7389 9236 9237 28
7390 9236 9238 28
7391 9236 9239 28
7392 9236 9240 28
7393 9241 9242 28
7394 9241 9243 28
7395 9241 9244 28
7396 9241 9245 28
7397 9246 9247 28
7398 9246 9248 28
7399 9246 9249 28
7400 9246 9250 28
7401 9251 9252 28
7402 9251 9253 28
7403 9251 9254 28
7404 9251 9255 28
7405 9256 9257 28
7406 9256 9258 28
7407 9256 9259 28
7408 9256 9260 28
7409 9261 9262 28
7410 9261 9263 28
7411 9261 9264 28
7412 9261 9265 28
7413 9266 9267 28
7414 9266 9268 28
7415 9266 9269 28
7416 9266 9270 28
7417 9271 9272 28
7418 9271 9273 28
7419 9271 9274 28
7420 9271 9275 28
7421 9276 9277 28
7422 9276 9278 28
7423 9276 9279 28
7424 9276 9280 28
7425 9281 9282 28
7426 9281 9283 28
7427 9281 9284 28
7428 9281 9285 28
7429 9286 9287 28
7430 9286 9288 28
7431 9286 9289 28
7432 9286 9290 28
7433 9291 9292 28
7434 9291 9293 28
7435 9291 9294 28
7436 9291 9295 28
7437 9296 9297 28
7438 9296 9298 28
7439 9296 9299 28
7440 9296 9300 28
7441 9301 9302 28
7442 9301 9303 28
7443 9301 9304 28
7444 9301 9305 28
7445 9306 9307 28
7446 9306 9308 28
7447 9306 9309 28
7448 9306 9310 28
7449 9311 9312 28
7450 9311 9313 28
7451 9311 9314 28
7452 9311 9315 28
7453 9316 9317 28
7454 9316 9318 28
7455 9316 9319 28
7456 9316 9320 28
7457 9321 9322 28
7458 9321 9323 28
7459 9321 9324 28
7460 9321 9325 28
7461 9326 9327 28
7462 9326 9328 28
7463 9326 9329 28
7464 9326 9330 28
7465 9331 9332 28
7466 9331 9333 28
7467 9331 9334 28
7468 9331 9335 28
7469 9336 9337 28
7470 9336 9338 28
7471 9336 9339 28
7472 9336 9340 28
7473 9341 9342 28
7474 9341 9343 28
7475 9341 9344 28
7476 9341 9345 28
7477 9346 9347 28
7478 9346 9348 28
7479 9346 9349 28
7480 9346 9350 28
7481 9351 9352 28
7482 9351 9353 28
7483 9351 9354 28
7484 9351 9355 28
7485 9356 9357 28
7486 9356 9358 28
7487 9356 9359 28
7488 9356 9360 28
7489 9361 9362 28
7490 9361 9363 28
7491 9361 9364 28
7492 9361 9365 28
7493 9366 9367 28
7494 9366 9368 28
7495 9366 9369 28
7496 9366 9370 28
7497 9371 9372 28
7498 9371 9373 28
7499 9371 9374 28
7500 9371 9375 28
7501 9376 9377 28
7502 9376 9378 28
7503 9376 9379 28
7504 9376 9380 28
7505 9381 9382 28
7506 9381 9383 28
7507 9381 9384 28
7508 9381 9385 28
7509 9386 9387 28
7510 9386 9388 28
7511 9386 9389 28
7512 9386 9390 28
7513 9391 9392 28
7514 9391 9393 28
7515 9391 9394 28
7516 9391 9395 28
7517 9396 9397 28
7518 9396 9398 28
7519 9396 9399 28
7520 9396 9400 28
7521 9401 9402 28
7522 9401 9403 28
7523 9401 9404 28
7524 9401 9405 28
7525 9406 9407 28
7526 9406 9408 28
7527 9406 9409 28
7528 9406 9410 28
7529 9411 9412 28
7530 9411 9413 28
7531 9411 9414 28
7532 9411 9415 28
7533 9416 9417 28
7534 9416 9418 28
7535 9416 9419 28
7536 9416 9420 28
7537 9421 9422 28
7538 9421 9423 28
7539 9421 9424 28
7540 9421 9425 28
7541 9426 9427 28
7542 9426 9428 28
7543 9426 9429 28
7544 9426 9430 28
7545 9431 9432 28
7546 9431 9433 28
7547 9431 9434 28
7548 9431 9435 28
7549 9436 9437 28
7550 9436 9438 28
7551 9436 9439 28
7552 9436 9440 28
7553 9441 9442 28
7554 9441 9443 28
7555 9441 9444 28
7556 9441 9445 28
7557 9446 9447 28
7558 9446 9448 28
7559 9446 9449 28
7560 9446 9450 28
7561 9451 9452 28
7562 9451 9453 28
7563 9451 9454 28
7564 9451 9455 28
7565 9456 9457 28
7566 9456 9458 28
7567 9456 9459 28
7568 9456 9460 28
7569 9461 9462 28
7570 9461 9463 28
7571 9461 9464 28
7572 9461 9465 28
7573 9466 9467 28
7574 9466 9468 28
7575 9466 9469 28
7576 9466 9470 28
7577 9471 9472 28
7578 9471 9473 28
7579 9471 9474 28
7580 9471 9475 28
7581 9476 9477 28
7582 9476 9478 28
7583 9476 9479 28
7584 9476 9480 28
7585 9481 9482 28
7586 9481 9483 28
7587 9481 9484 28
7588 9481 9485 28
7589 9486 9487 28
7590 9486 9488 28
7591 9486 9489 28
7592 9486 9490 28
7593 9491 9492 28
7594 9491 9493 28
7595 9491 9494 28
7596 9491 9495 28
7597 9496 9497 28
7598 9496 9498 28
7599 9496 9499 28
7600 9496 9500 28
7601 9501 9502 28
7602 9501 9503 28
7603 9501 9504 28
7604 9501 9505 28
7605 9506 9507 28
7606 9506 9508 28
7607 9506 9509 28
7608 9506 9510 28
7609 9511 9512 28
7610 9511 9513 28
7611 9511 9514 28
7612 9511 9515 28
7613 9516 9517 28
7614 9516 9518 28
7615 9516 9519 28
7616 9516 9520 28
7617 9521 9522 28
7618 9521 9523 28
7619 9521 9524 28
7620 9521 9525 28
7621 9526 9527 28
7622 9526 9528 28
7623 9526 9529 28
7624 9526 9530 28
7625 9531 9532 28
7626 9531 9533 28
7627 9531 9534 28
7628 9531 9535 28
7629 9536 9537 28
7630 9536 9538 28
7631 9536 9539 28
7632 9536 9540 28
7633 9541 9542 28
7634 9541 9543 28
7635 9541 9544 28
7636 9541 9545 28
7637 9546 9547 28
7638 9546 9548 28
7639 9546 9549 28
7640 9546 9550 28
7641 9551 9552 28
7642 9551 9553 28
7643 9551 9554 28
7644 9551 9555 28
7645 9556 9557 28
7646 9556 9558 28
7647 9556 9559 28
7648 9556 9560 28
7649 9561 9562 28
7650 9561 9563 28
7651 9561 9564 28
7652 9561 9565 28
7653 9566 9567 28
7654 9566 9568 28
7655 9566 9569 28
7656 9566 9570 28
7657 9571 9572 28
7658 9571 9573 28
7659 9571 9574 28
7660 9571 9575 28
7661 9576 9577 28
7662 9576 9578 28
7663 9576 9579 28
7664 9576 9580 28
7665 9581 9582 28
7666 9581 9583 28
7667 9581 9584 28
7668 9581 9585 28
7669 9586 9587 28
7670 9586 9588 28
7671 9586 9589 28
7672 9586 9590 28
7673 9591 9592 28
7674 9591 9593 28
7675 9591 9594 28
7676 9591 9595 28
7677 9596 9597 28
7678 9596 9598 28
7679 9596 9599 28
7680 9596 9600 28
7681 9601 9602 28
7682 9601 9603 28
7683 9601 9604 28
7684 9601 9605 28
7685 9606 9607 28
7686 9606 9608 28
7687 9606 9609 28
7688 9606 9610 28
7689 9611 9612 28
7690 9611 9613 28
7691 9611 9614 28
7692 9611 9615 28
7693 9616 9617 28
7694 9616 9618 28
7695 9616 9619 28
7696 9616 9620 28
7697 9621 9622 28
7698 9621 9623 28
7699 9621 9624 28
7700 9621 9625 28
7701 9626 9627 28
7702 9626 9628 28
7703 9626 9629 28
7704 9626 9630 28
7705 9631 9632 28
7706 9631 9633 28
7707 9631 9634 28
7708 9631 9635 28
7709 9636 9637 28
7710 9636 9638 28
7711 9636 9639 28
7712 9636 9640 28
7713 9641 9642 28
7714 9641 9643 28
7715 9641 9644 28
7716 9641 9645 28
7717 9646 9647 28
7718 9646 9648 28
7719 9646 9649 28
7720 9646 9650 28
7721 9651 9652 28
7722 9651 9653 28
7723 9651 9654 28
7724 9651 9655 28
7725 9656 9657 28
7726 9656 9658 28
7727 9656 9659 28
7728 9656 9660 28
7729 9661 9662 28
7730 9661 9663 28
7731 9661 9664 28
7732 9661 9665 28
7733 9666 9667 28
7734 9666 9668 28
7735 9666 9669 28
7736 9666 9670 28
7737 9671 9672 28
7738 9671 9673 28
7739 9671 9674 28
7740 9671 9675 28
7741 9676 9677 28
7742 9676 9678 28
7743 9676 9679 28
7744 9676 9680 28
7745 9681 9682 28
7746 9681 9683 28
7747 9681 9684 28
7748 9681 9685 28
7749 9686 9687 28
7750 9686 9688 28
7751 9686 9689 28
7752 9686 9690 28
7753 9691 9692 28
7754 9691 9693 28
7755 9691 9694 28
7756 9691 9695 28
7757 9696 9697 28
7758 9696 9698 28
7759 9696 9699 28
7760 9696 9700 28
7761 9701 9702 28
7762 9701 9703 28
7763 9701 9704 28
7764 9701 9705 28
7765 9706 9707 28
7766 9706 9708 28
7767 9706 9709 28
7768 9706 9710 28
7769 9711 9712 28
7770 9711 9713 28
7771 9711 9714 28
7772 9711 9715 28
7773 9716 9717 28
7774 9716 9718 28
7775 9716 9719 28
7776 9716 9720 28
7777 9721 9722 28
7778 9721 9723 28
7779 9721 9724 28
7780 9721 9725 28
7781 9726 9727 28
7782 9726 9728 28
7783 9726 9729 28
7784 9726 9730 28
7785 9731 9732 28
7786 9731 9733 28
7787 9731 9734 28
7788 9731 9735 28
7789 9736 9737 28
7790 9736 9738 28
7791 9736 9739 28
7792 9736 9740 28
7793 9741 9742 28
7794 9741 9743 28
7795 9741 9744 28
7796 9741 9745 28
7797 9746 9747 28
7798 9746 9748 28
7799 9746 9749 28
7800 9746 9750 28
7801 9751 9752 28
7802 9751 9753 28
7803 9751 9754 28
7804 9751 9755 28
7805 9756 9757 28
7806 9756 9758 28
7807 9756 9759 28
7808 9756 9760 28
7809 9761 9762 28
7810 9761 9763 28
7811 9761 9764 28
7812 9761 9765 28
7813 9766 9767 28
7814 9766 9768 28
7815 9766 9769 28
7816 9766 9770 28
7817 9771 9772 28
7818 9771 9773 28
7819 9771 9774 28
7820 9771 9775 28
7821 9776 9777 28
7822 9776 9778 28
7823 9776 9779 28
7824 9776 9780 28
7825 9781 9782 28
7826 9781 9783 28
7827 9781 9784 28
7828 9781 9785 28
7829 9786 9787 28
7830 9786 9788 28
7831 9786 9789 28
7832 9786 9790 28
7833 9791 9792 28
7834 9791 9793 28
7835 9791 9794 28
7836 9791 9795 28
7837 9796 9797 28
7838 9796 9798 28
7839 9796 9799 28
7840 9796 9800 28
7841 9801 9802 28
7842 9801 9803 28
7843 9801 9804 28
7844 9801 9805 28
7845 9806 9807 28
7846 9806 9808 28
7847 9806 9809 28
7848 9806 9810 28
7849 9811 9812 28
7850 9811 9813 28
7851 9811 9814 28
7852 9811 9815 28
7853 9816 9817 28
7854 9816 9818 28
7855 9816 9819 28
7856 9816 9820 28
7857 9821 9822 28
7858 9821 9823 28
7859 9821 9824 28
7860 9821 9825 28
7861 9826 9827 28
7862 9826 9828 28
7863 9826 9829 28
7864 9826 9830 28
7865 9831 9832 28
7866 9831 9833 28
7867 9831 9834 28
7868 9831 9835 28
7869 9836 9837 28
7870 9836 9838 28
7871 9836 9839 28
7872 9836 9840 28
7873 9841 9842 28
7874 9841 9843 28
7875 9841 9844 28
7876 9841 9845 28
7877 9846 9847 28
7878 9846 9848 28
7879 9846 9849 28
7880 9846 9850 28
7881 9851 9852 28
7882 9851 9853 28
7883 9851 9854 28
7884 9851 9855 28
7885 9856 9857 28
7886 9856 9858 28
7887 9856 9859 28
7888 9856 9860 28
7889 9861 9862 28
7890 9861 9863 28
7891 9861 9864 28
7892 9861 9865 28
7893 9866 9867 28
7894 9866 9868 28
7895 9866 9869 28
7896 9866 9870 28
7897 9871 9872 28
7898 9871 9873 28
7899 9871 9874 28
7900 9871 9875 28
7901 9876 9877 28
7902 9876 9878 28
7903 9876 9879 28
7904 9876 9880 28
7905 9881 9882 28
7906 9881 9883 28
7907 9881 9884 28
7908 9881 9885 28
7909 9886 9887 28
7910 9886 9888 28
7911 9886 9889 28
7912 9886 9890 28
7913 9891 9892 28
7914 9891 9893 28
7915 9891 9894 28
7916 9891 9895 28
7917 9896 9897 28
7918 9896 9898 28
7919 9896 9899 28
7920 9896 9900 28
7921 9901 9902 28
7922 9901 9903 28
7923 9901 9904 28
7924 9901 9905 28
7925 9906 9907 28
7926 9906 9908 28
7927 9906 9909 28
7928 9906 9910 28
7929 9911 9912 28
7930 9911 9913 28
7931 9911 9914 28
7932 9911 9915 28
7933 9916 9917 28
7934 9916 9918 28
7935 9916 9919 28
7936 9916 9920 28
7937 9921 9922 28
7938 9921 9923 28
7939 9921 9924 28
7940 9921 9925 28
7941 9926 9927 28
7942 9926 9928 28
7943 9926 9929 28
7944 9926 9930 28
7945 9931 9932 28
7946 9931 9933 28
7947 9931 9934 28
7948 9931 9935 28
7949 9936 9937 28
7950 9936 9938 28
7951 9936 9939 28
7952 9936 9940 28
7953 9941 9942 28
7954 9941 9943 28
7955 9941 9944 28
7956 9941 9945 28
7957 9946 9947 28
7958 9946 9948 28
7959 9946 9949 28
7960 9946 9950 28
7961 9951 9952 28
7962 9951 9953 28
7963 9951 9954 28
7964 9951 9955 28
7965 9956 9957 28
7966 9956 9958 28
7967 9956 9959 28
7968 9956 9960 28
7969 9961 9962 28
7970 9961 9963 28
7971 9961 9964 28
7972 9961 9965 28
7973 9966 9967 28
7974 9966 9968 28
7975 9966 9969 28
7976 9966 9970 28
7977 9971 9972 28
7978 9971 9973 28
7979 9971 9974 28
7980 9971 9975 28
7981 9976 9977 28
7982 9976 9978 28
7983 9976 9979 28
7984 9976 9980 28
7985 9981 9982 28
7986 9981 9983 28
7987 9981 9984 28
7988 9981 9985 28
7989 9986 9987 28
7990 9986 9988 28
7991 9986 9989 28
7992 9986 9990 28
7993 9991 9992 28
7994 9991 9993 28
7995 9991 9994 28
7996 9991 9995 28
7997 9996 9997 28
7998 9996 9998 28
7999 9996 9999 28
8000 9996 10000 28
8001 10001 10002 28
8002 10001 10003 28
8003 10001 10004 28
8004 10001 10005 28
8005 10006 10007 28
8006 10006 10008 28
8007 10006 10009 28
8008 10006 10010 28
8009 10011 10012 28
8010 10011 10013 28
8011 10011 10014 28
8012 10011 10015 28
8013 10016 10017 28
8014 10016 10018 28
8015 10016 10019 28
8016 10016 10020 28
8017 10021 10022 28
8018 10021 10023 28
8019 10021 10024 28
8020 10021 10025 28
8021 10026 10027 28
8022 10026 10028 28
8023 10026 10029 28
8024 10026 10030 28
8025 10031 10032 28
8026 10031 10033 28
8027 10031 10034 28
8028 10031 10035 28
8029 10036 10037 28
8030 10036 10038 28
8031 10036 10039 28
8032 10036 10040 28
8033 10041 10042 28
8034 10041 10043 28
8035 10041 10044 28
8036 10041 10045 28
8037 10046 10047 28
8038 10046 10048 28
8039 10046 10049 28
8040 10046 10050 28
8041 10051 10052 28
8042 10051 10053 28
8043 10051 10054 28
8044 10051 10055 28
8045 10056 10057 28
8046 10056 10058 28
8047 10056 10059 28
8048 10056 10060 28
8049 10061 10062 28
8050 10061 10063 28
8051 10061 10064 28
8052 10061 10065 28
8053 10066 10067 28
8054 10066 10068 28
8055 10066 10069 28
8056 10066 10070 28
8057 10071 10072 28
8058 10071 10073 28
8059 10071 10074 28
8060 10071 10075 28
8061 10076 10077 28
8062 10076 10078 28
8063 10076 10079 28
8064 10076 10080 28
8065 10081 10082 28
8066 10081 10083 28
8067 10081 10084 28
8068 10081 10085 28
8069 10086 10087 28
8070 10086 10088 28
8071 10086 10089 28
8072 10086 10090 28
8073 10091 10092 28
8074 10091 10093 28
8075 10091 10094 28
8076 10091 10095 28
8077 10096 10097 28
8078 10096 10098 28
8079 10096 10099 28
8080 10096 10100 28
8081 10101 10102 28
8082 10101 10103 28
8083 10101 10104 28
8084 10101 10105 28
8085 10106 10107 28
8086 10106 10108 28
8087 10106 10109 28
8088 10106 10110 28
8089 10111 10112 28
8090 10111 10113 28
8091 10111 10114 28
8092 10111 10115 28
8093 10116 10117 28
8094 10116 10118 28
8095 10116 10119 28
8096 10116 10120 28
8097 10121 10122 28
8098 10121 10123 28
8099 10121 10124 28
8100 10121 10125 28
8101 10126 10127 28
8102 10126 10128 28
8103 10126 10129 28
8104 10126 10130 28
8105 10131 10132 28
8106 10131 10133 28
8107 10131 10134 28
8108 10131 10135 28
8109 10136 10137 28
8110 10136 10138 28
8111 10136 10139 28
8112 10136 10140 28
8113 10141 10142 28
8114 10141 10143 28
8115 10141 10144 28
8116 10141 10145 28
8117 10146 10147 28
8118 10146 10148 28
8119 10146 10149 28
8120 10146 10150 28
8121 10151 10152 28
8122 10151 10153 28
8123 10151 10154 28
8124 10151 10155 28
8125 10156 10157 28
8126 10156 10158 28
8127 10156 10159 28
8128 10156 10160 28
8129 10161 10162 28
8130 10161 10163 28
8131 10161 10164 28
8132 10161 10165 28
8133 10166 10167 28
8134 10166 10168 28
8135 10166 10169 28
8136 10166 10170 28
8137 10171 10172 28
8138 10171 10173 28
8139 10171 10174 28
8140 10171 10175 28
8141 10176 10177 28
8142 10176 10178 28
8143 10176 10179 28
8144 10176 10180 28
8145 10181 10182 28
8146 10181 10183 28
8147 10181 10184 28
8148 10181 10185 28
8149 10186 10187 28
8150 10186 10188 28
8151 10186 10189 28
8152 10186 10190 28
8153 10191 10192 28
8154 10191 10193 28
8155 10191 10194 28
8156 10191 10195 28
8157 10196 10197 28
8158 10196 10198 28
8159 10196 10199 28
8160 10196 10200 28
8161 10201 10202 28
8162 10201 10203 28
8163 10201 10204 28
8164 10201 10205 28
8165 10206 10207 28
8166 10206 10208 28
8167 10206 10209 28
8168 10206 10210 28
8169 10211 10212 28
8170 10211 10213 28
8171 10211 10214 28
8172 10211 10215 28
8173 10216 10217 28
8174 10216 10218 28
8175 10216 10219 28
8176 10216 10220 28
8177 10221 10222 28
8178 10221 10223 28
8179 10221 10224 28
8180 10221 10225 28
8181 10226 10227 28
8182 10226 10228 28
8183 10226 10229 28
8184 10226 10230 28
8185 10231 10232 28
8186 10231 10233 28
8187 10231 10234 28
8188 10231 10235 28
8189 10236 10237 28
8190 10236 10238 28
8191 10236 10239 28
8192 10236 10240 28
8193 10241 10242 28
8194 10241 10243 28
8195 10241 10244 28
8196 10241 10245 28
8197 10246 10247 28
8198 10246 10248 28
8199 10246 10249 28
8200 10246 10250 28
8201 10251 10252 28
8202 10251 10253 28
8203 10251 10254 28
8204 10251 10255 28
8205 10256 10257 28
8206 10256 10258 28
8207 10256 10259 28
8208 10256 10260 28
8209 10261 10262 28
8210 10261 10263 28
8211 10261 10264 28
8212 10261 10265 28
8213 10266 10267 28
8214 10266 10268 28
8215 10266 10269 28
8216 10266 10270 28
8217 10271 10272 28
8218 10271 10273 28
8219 10271 10274 28
8220 10271 10275 28
8221 10276 10277 28
8222 10276 10278 28
8223 10276 10279 28
8224 10276 10280 28
8225 10281 10282 28
8226 10281 10283 28
8227 10281 10284 28
8228 10281 10285 28
8229 10286 10287 28
8230 10286 10288 28
8231 10286 10289 28
8232 10286 10290 28
8233 10291 10292 28
8234 10291 10293 28
8235 10291 10294 28
8236 10291 10295 28
8237 10296 10297 28
8238 10296 10298 28
8239 10296 10299 28
8240 10296 10300 28
8241 10301 10302 28
8242 10301 10303 28
8243 10301 10304 28
8244 10301 10305 28
8245 10306 10307 28
8246 10306 10308 28
8247 10306 10309 28
8248 10306 10310 28
8249 10311 10312 28
8250 10311 10313 28
8251 10311 10314 28
8252 10311 10315 28
8253 10316 10317 28
8254 10316 10318 28
8255 10316 10319 28
8256 10316 10320 28
8257 10321 10322 28
8258 10321 10323 28
8259 10321 10324 28
8260 10321 10325 28
8261 10326 10327 28
8262 10326 10328 28
8263 10326 10329 28
8264 10326 10330 28
8265 10331 10332 28
8266 10331 10333 28
8267 10331 10334 28
8268 10331 10335 28
8269 10336 10337 28
8270 10336 10338 28
8271 10336 10339 28
8272 10336 10340 28
8273 10341 10342 28
8274 10341 10343 28
8275 10341 10344 28
8276 10341 10345 28
8277 10346 10347 28
8278 10346 10348 28
8279 10346 10349 28
8280 10346 10350 28
8281 10351 10352 28
8282 10351 10353 28
8283 10351 10354 28
8284 10351 10355 28
8285 10356 10357 28
8286 10356 10358 28
8287 10356 10359 28
8288 10356 10360 28
8289 10361 10362 28
8290 10361 10363 28
8291 10361 10364 28
8292 10361 10365 28
8293 10366 10367 28
8294 10366 10368 28
8295 10366 10369 28
8296 10366 10370 28
8297 10371 10372 28
8298 10371 10373 28
8299 10371 10374 28
8300 10371 10375 28
8301 10376 10377 28
8302 10376 10378 28
8303 10376 10379 28
8304 10376 10380 28
8305 10381 10382 28
8306 10381 10383 28
8307 10381 10384 28
8308 10381 10385 28
8309 10386 10387 28
8310 10386 10388 28
8311 10386 10389 28
8312 10386 10390 28
8313 10391 10392 28
8314 10391 10393 28
8315 10391 10394 28
8316 10391 10395 28
8317 10396 10397 28
8318 10396 10398 28
8319 10396 10399 28
8320 10396 10400 28
8321 10401 10402 28
8322 10401 10403 28
8323 10401 10404 28
8324 10401 10405 28
8325 10406 10407 28
8326 10406 10408 28
8327 10406 10409 28
8328 10406 10410 28
8329 10411 10412 28
8330 10411 10413 28
8331 10411 10414 28
8332 10411 10415 28
8333 10416 10417 28
8334 10416 10418 28
8335 10416 10419 28
8336 10416 10420 28
8337 10421 10422 28
8338 10421 10423 28
8339 10421 10424 28
8340 10421 10425 28
8341 10426 10427 28
8342 10426 10428 28
8343 10426 10429 28
8344 10426 10430 28
8345 10431 10432 28
8346 10431 10433 28
8347 10431 10434 28
8348 10431 10435 28
8349 10436 10437 28
8350 10436 10438 28
8351 10436 10439 28
8352 10436 10440 28
8353 10441 10442 28
8354 10441 10443 28
8355 10441 10444 28
8356 10441 10445 28
8357 10446 10447 28
8358 10446 10448 28
8359 10446 10449 28
8360 10446 10450 28
8361 10451 10452 28
8362 10451 10453 28
8363 10451 10454 28
8364 10451 10455 28
8365 10456 10457 28
8366 10456 10458 28
8367 10456 10459 28
8368 10456 10460 28
8369 10461 10462 28
8370 10461 10463 28
8371 10461 10464 28
8372 10461 10465 28
8373 10466 10467 28
8374 10466 10468 28
8375 10466 10469 28
8376 10466 10470 28
8377 10471 10472 28
8378 10471 10473 28
8379 10471 10474 28
8380 10471 10475 28
8381 10476 10477 28
8382 10476 10478 28
8383 10476 10479 28
8384 10476 10480 28
8385 10481 10482 28
8386 10481 10483 28
8387 10481 10484 28
8388 10481 10485 28
8389 10486 10487 28
8390 10486 10488 28
8391 10486 10489 28
8392 10486 10490 28
8393 10491 10492 28
8394 10491 10493 28
8395 10491 10494 28
8396 10491 10495 28
8397 10496 10497 28
8398 10496 10498 28
8399 10496 10499 28
8400 10496 10500 28
8401 10501 10502 28
8402 10501 10503 28
8403 10501 10504 28
8404 10501 10505 28
8405 10506 10507 28
8406 10506 10508 28
8407 10506 10509 28
8408 10506 10510 28
8409 10511 10512 28
8410 10511 10513 28
8411 10511 10514 28
8412 10511 10515 28
8413 10516 10517 28
8414 10516 10518 28
8415 10516 10519 28
8416 10516 10520 28
8417 10521 10522 28
8418 10521 10523 28
8419 10521 10524 28
8420 10521 10525 28
8421 10526 10527 28
8422 10526 10528 28
8423 10526 10529 28
8424 10526 10530 28
8425 10531 10532 28
8426 10531 10533 28
8427 10531 10534 28
8428 10531 10535 28
8429 10536 10537 28
8430 10536 10538 28
8431 10536 10539 28
8432 10536 10540 28
8433 10541 10542 28
8434 10541 10543 28
8435 10541 10544 28
8436 10541 10545 28
8437 10546 10547 28
8438 10546 10548 28
8439 10546 10549 28
8440 10546 10550 28
8441 10551 10552 28
8442 10551 10553 28
8443 10551 10554 28
8444 10551 10555 28
8445 10556 10557 28
8446 10556 10558 28
8447 10556 10559 28
8448 10556 10560 28
8449 10561 10562 28
8450 10561 10563 28
8451 10561 10564 28
8452 10561 10565 28
8453 10566 10567 28
8454 10566 10568 28
8455 10566 10569 28
8456 10566 10570 28
8457 10571 10572 28
8458 10571 10573 28
8459 10571 10574 28
8460 10571 10575 28
8461 10576 10577 28
8462 10576 10578 28
8463 10576 10579 28
8464 10576 10580 28
8465 10581 10582 28
8466 10581 10583 28
8467 10581 10584 28
8468 10581 10585 28
8469 10586 10587 28
8470 10586 10588 28
8471 10586 10589 28
8472 10586 10590 28
8473 10591 10592 28
8474 10591 10593 28
8475 10591 10594 28
8476 10591 10595 28
8477 10596 10597 28
8478 10596 10598 28
8479 10596 10599 28
8480 10596 10600 28
8481 10601 10602 28
8482 10601 10603 28
8483 10601 10604 28
8484 10601 10605 28
8485 10606 10607 28
8486 10606 10608 28
8487 10606 10609 28
8488 10606 10610 28
8489 10611 10612 28
8490 10611 10613 28
8491 10611 10614 28
8492 10611 10615 28
8493 10616 10617 28
8494 10616 10618 28
8495 10616 10619 28
8496 10616 10620 28
8497 10621 10622 28
8498 10621 10623 28
8499 10621 10624 28
8500 10621 10625 28
8501 10626 10627 28
8502 10626 10628 28
8503 10626 10629 28
8504 10626 10630 28
8505 10631 10632 28
8506 10631 10633 28
8507 10631 10634 28
8508 10631 10635 28
8509 10636 10637 28
8510 10636 10638 28
8511 10636 10639 28
8512 10636 10640 28
8513 10641 10642 28
8514 10641 10643 28
8515 10641 10644 28
8516 10641 10645 28
8517 10646 10647 28
8518 10646 10648 28
8519 10646 10649 28
8520 10646 10650 28
8521 10651 10652 28
8522 10651 10653 28
8523 10651 10654 28
8524 10651 10655 28
8525 10656 10657 28
8526 10656 10658 28
8527 10656 10659 28
8528 10656 10660 28
8529 10661 10662 28
8530 10661 10663 28
8531 10661 10664 28
8532 10661 10665 28
8533 10666 10667 28
8534 10666 10668 28
8535 10666 10669 28
8536 10666 10670 28
8537 10671 10672 28
8538 10671 10673 28
8539 10671 10674 28
8540 10671 10675 28
8541 10676 10677 28
8542 10676 10678 28
8543 10676 10679 28
8544 10676 10680 28
8545 10681 10682 28
8546 10681 10683 28
8547 10681 10684 28
8548 10681 10685 28
8549 10686 10687 28
8550 10686 10688 28
8551 10686 10689 28
8552 10686 10690 28
8553 10691 10692 28
8554 10691 10693 28
8555 10691 10694 28
8556 10691 10695 28
8557 10696 10697 28
8558 10696 10698 28
8559 10696 10699 28
8560 10696 10700 28
8561 10701 10702 28
8562 10701 10703 28
8563 10701 10704 28
8564 10701 10705 28
8565 10706 10707 28
8566 10706 10708 28
8567 10706 10709 28
8568 10706 10710 28
8569 10711 10712 28
8570 10711 10713 28
8571 10711 10714 28
8572 10711 10715 28
8573 10716 10717 28
8574 10716 10718 28
8575 10716 10719 28
8576 10716 10720 28
8577 10721 10722 28
8578 10721 10723 28
8579 10721 10724 28
8580 10721 10725 28
8581 10726 10727 28
8582 10726 10728 28
8583 10726 10729 28
8584 10726 10730 28
8585 10731 10732 28
8586 10731 10733 28
8587 10731 10734 28
8588 10731 10735 28
8589 10736 10737 28
8590 10736 10738 28
8591 10736 10739 28
8592 10736 10740 28
8593 10741 10742 28
8594 10741 10743 28
8595 10741 10744 28
8596 10741 10745 28
8597 10746 10747 28
8598 10746 10748 28
8599 10746 10749 28
8600 10746 10750 28
8601 10751 10752 28
8602 10751 10753 28
8603 10751 10754 28
8604 10751 10755 28
8605 10756 10757 28
8606 10756 10758 28
8607 10756 10759 28
8608 10756 10760 28
8609 10761 10762 28
8610 10761 10763 28
8611 10761 10764 28
8612 10761 10765 28
8613 10766 10767 28
8614 10766 10768 28
8615 10766 10769 28
8616 10766 10770 28
8617 10771 10772 28
8618 10771 10773 28
8619 10771 10774 28
8620 10771 10775 28
8621 10776 10777 28
8622 10776 10778 28
8623 10776 10779 28
8624 10776 10780 28
8625 10781 10782 28
8626 10781 10783 28
8627 10781 10784 28
8628 10781 10785 28
8629 10786 10787 28
8630 10786 10788 28
8631 10786 10789 28
8632 10786 10790 28
8633 10791 10792 28
8634 10791 10793 28
8635 10791 10794 28
8636 10791 10795 28
8637 10796 10797 28
8638 10796 10798 28
8639 10796 10799 28
8640 10796 10800 28
8641 10801 10802 28
8642 10801 10803 28
8643 10801 10804 28
8644 10801 10805 28
8645 10806 10807 28
8646 10806 10808 28
8647 10806 10809 28
8648 10806 10810 28
8649 10811 10812 28
8650 10811 10813 28
8651 10811 10814 28
8652 10811 10815 28
8653 10816 10817 28
8654 10816 10818 28
8655 10816 10819 28
8656 10816 10820 28
8657 10821 10822 28
8658 10821 10823 28
8659 10821 10824 28
8660 10821 10825 28
8661 10826 10827 28
8662 10826 10828 28
8663 10826 10829 28
8664 10826 10830 28
8665 10831 10832 28
8666 10831 10833 28
8667 10831 10834 28
8668 10831 10835 28
8669 10836 10837 28
8670 10836 10838 28
8671 10836 10839 28
8672 10836 10840 28
8673 10841 10842 28
8674 10841 10843 28
8675 10841 10844 28
8676 10841 10845 28
8677 10846 10847 28
8678 10846 10848 28
8679 10846 10849 28
8680 10846 10850 28
8681 10851 10852 28
8682 10851 10853 28
8683 10851 10854 28
8684 10851 10855 28
8685 10856 10857 28
8686 10856 10858 28
8687 10856 10859 28
8688 10856 10860 28
8689 10861 10862 28
8690 10861 10863 28
8691 10861 10864 28
8692 10861 10865 28
8693 10866 10867 28
8694 10866 10868 28
8695 10866 10869 28
8696 10866 10870 28
8697 10871 10872 28
8698 10871 10873 28
8699 10871 10874 28
8700 10871 10875 28
8701 10876 10877 28
8702 10876 10878 28
8703 10876 10879 28
8704 10876 10880 28
8705 10881 10882 28
8706 10881 10883 28
8707 10881 10884 28
8708 10881 10885 28
8709 10886 10887 28
8710 10886 10888 28
8711 10886 10889 28
8712 10886 10890 28
8713 10891 10892 28
8714 10891 10893 28
8715 10891 10894 28
8716 10891 10895 28
8717 10896 10897 28
8718 10896 10898 28
8719 10896 10899 28
8720 10896 10900 28
8721 10901 10902 28
8722 10901 10903 28
8723 10901 10904 28
8724 10901 10905 28
8725 10906 10907 28
8726 10906 10908 28
8727 10906 10909 28
8728 10906 10910 28
8729 10911 10912 28
8730 10911 10913 28
8731 10911 10914 28
8732 10911 10915 28
8733 10916 10917 28
8734 10916 10918 28
8735 10916 10919 28
8736 10916 10920 28
8737 10921 10922 28
8738 10921 10923 28
8739 10921 10924 28
8740 10921 10925 28
8741 10926 10927 28
8742 10926 10928 28
8743 10926 10929 28
8744 10926 10930 28
8745 10931 10932 28
8746 10931 10933 28
8747 10931 10934 28
8748 10931 10935 28
8749 10936 10937 28
8750 10936 10938 28
8751 10936 10939 28
8752 10936 10940 28
8753 10941 10942 28
8754 10941 10943 28
8755 10941 10944 28
8756 10941 10945 28
8757 10946 10947 28
8758 10946 10948 28
8759 10946 10949 28
8760 10946 10950 28
8761 10951 10952 28
8762 10951 10953 28
8763 10951 10954 28
8764 10951 10955 28
8765 10956 10957 28
8766 10956 10958 28
8767 10956 10959 28
8768 10956 10960 28
8769 10961 10962 28
8770 10961 10963 28
8771 10961 10964 28
8772 10961 10965 28
8773 10966 10967 28
8774 10966 10968 28
8775 10966 10969 28
8776 10966 10970 28
8777 10971 10972 28
8778 10971 10973 28
8779 10971 10974 28
8780 10971 10975 28
8781 10976 10977 28
8782 10976 10978 28
8783 10976 10979 28
8784 10976 10980 28
8785 10981 10982 28
8786 10981 10983 28
8787 10981 10984 28
8788 10981 10985 28
8789 10986 10987 28
8790 10986 10988 28
8791 10986 10989 28
8792 10986 10990 28
8793 10991 10992 28
8794 10991 10993 28
8795 10991 10994 28
8796 10991 10995 28
8797 10996 10997 28
8798 10996 10998 28
8799 10996 10999 28
8800 10996 11000 28
8801 11001 11002 28
8802 11001 11003 28
8803 11001 11004 28
8804 11001 11005 28
8805 11006 11007 28
8806 11006 11008 28
8807 11006 11009 28
8808 11006 11010 28
8809 11011 11012 28
8810 11011 11013 28
8811 11011 11014 28
8812 11011 11015 28
8813 11016 11017 28
8814 11016 11018 28
8815 11016 11019 28
8816 11016 11020 28
8817 11021 11022 28
8818 11021 11023 28
8819 11021 11024 28
8820 11021 11025 28
8821 11026 11027 28
8822 11026 11028 28
8823 11026 11029 28
8824 11026 11030 28
8825 11031 11032 28
8826 11031 11033 28
8827 11031 11034 28
8828 11031 11035 28
8829 11036 11037 28
8830 11036 11038 28
8831 11036 11039 28
8832 11036 11040 28
8833 11041 11042 28
8834 11041 11043 28
8835 11041 11044 28
8836 11041 11045 28
8837 11046 11047 28
8838 11046 11048 28
8839 11046 11049 28
8840 11046 11050 28
8841 11051 11052 28
8842 11051 11053 28
8843 11051 11054 28
8844 11051 11055 28
8845 11056 11057 28
8846 11056 11058 28
8847 11056 11059 28
8848 11056 11060 28
8849 11061 11062 28
8850 11061 11063 28
8851 11061 11064 28
8852 11061 11065 28
8853 11066 11067 28
8854 11066 11068 28
8855 11066 11069 28
8856 11066 11070 28
8857 11071 11072 28
8858 11071 11073 28
8859 11071 11074 28
8860 11071 11075 28
8861 11076 11077 28
8862 11076 11078 28
8863 11076 11079 28
8864 11076 11080 28
8865 11081 11082 28
8866 11081 11083 28
8867 11081 11084 28
8868 11081 11085 28
8869 11086 11087 28
8870 11086 11088 28
8871 11086 11089 28
8872 11086 11090 28
8873 11091 11092 28
8874 11091 11093 28
8875 11091 11094 28
8876 11091 11095 28
8877 11096 11097 28
8878 11096 11098 28
8879 11096 11099 28
8880 11096 11100 28
8881 11101 11102 28
8882 11101 11103 28
8883 11101 11104 28
8884 11101 11105 28
8885 11106 11107 28
8886 11106 11108 28
8887 11106 11109 28
8888 11106 11110 28
8889 11111 11112 28
8890 11111 11113 28
8891 11111 11114 28
8892 11111 11115 28
8893 11116 11117 28
8894 11116 11118 28
8895 11116 11119 28
8896 11116 11120 28
8897 11121 11122 28
8898 11121 11123 28
8899 11121 11124 28
8900 11121 11125 28
8901 11126 11127 28
8902 11126 11128 28
8903 11126 11129 28
8904 11126 11130 28
8905 11131 11132 28
8906 11131 11133 28
8907 11131 11134 28
8908 11131 11135 28
8909 11136 11137 28
8910 11136 11138 28
8911 11136 11139 28
8912 11136 11140 28
8913 11141 11142 28
8914 11141 11143 28
8915 11141 11144 28
8916 11141 11145 28
8917 11146 11147 28
8918 11146 11148 28
8919 11146 11149 28
8920 11146 11150 28
8921 11151 11152 28
8922 11151 11153 28
8923 11151 11154 28
8924 11151 11155 28
8925 11156 11157 28
8926 11156 11158 28
8927 11156 11159 28
8928 11156 11160 28
8929 11161 11162 28
8930 11161 11163 28
8931 11161 11164 28
8932 11161 11165 28
8933 11166 11167 28
8934 11166 11168 28
8935 11166 11169 28
8936 11166 11170 28
8937 11171 11172 28
8938 11171 11173 28
8939 11171 11174 28
8940 11171 11175 28
8941 11176 11177 28
8942 11176 11178 28
8943 11176 11179 28
8944 11176 11180 28
8945 11181 11182 28
8946 11181 11183 28
8947 11181 11184 28
8948 11181 11185 28
8949 11186 11187 28
8950 11186 11188 28
8951 11186 11189 28
8952 11186 11190 28
8953 11191 11192 28
8954 11191 11193 28
8955 11191 11194 28
8956 11191 11195 28
8957 11196 11197 28
8958 11196 11198 28
8959 11196 11199 28
8960 11196 11200 28
8961 11201 11202 28
8962 11201 11203 28
8963 11201 11204 28
8964 11201 11205 28
8965 11206 11207 28
8966 11206 11208 28
8967 11206 11209 28
8968 11206 11210 28
8969 11211 11212 28
8970 11211 11213 28
8971 11211 11214 28
8972 11211 11215 28
8973 11216 11217 28
8974 11216 11218 28
8975 11216 11219 28
8976 11216 11220 28
8977 11221 11222 28
8978 11221 11223 28
8979 11221 11224 28
8980 11221 11225 28
8981 11226 11227 28
8982 11226 11228 28
8983 11226 11229 28
8984 11226 11230 28
8985 11231 11232 28
8986 11231 11233 28
8987 11231 11234 28
8988 11231 11235 28
8989 11236 11237 28
8990 11236 11238 28
8991 11236 11239 28
8992 11236 11240 28
8993 11241 11242 28
8994 11241 11243 28
8995 11241 11244 28
8996 11241 11245 28
8997 11246 11247 28
8998 11246 11248 28
8999 11246 11249 28
9000 11246 11250 28
9001 11251 11252 28
9002 11251 11253 28
9003 11251 11254 28
9004 11251 11255 28
9005 11256 11257 28
9006 11256 11258 28
9007 11256 11259 28
9008 11256 11260 28
9009 11261 11262 28
9010 11261 11263 28
9011 11261 11264 28
9012 11261 11265 28
9013 11266 11267 28
9014 11266 11268 28
9015 11266 11269 28
9016 11266 11270 28
9017 11271 11272 28
9018 11271 11273 28
9019 11271 11274 28
9020 11271 11275 28
9021 11276 11277 28
9022 11276 11278 28
9023 11276 11279 28
9024 11276 11280 28
9025 11281 11282 28
9026 11281 11283 28
9027 11281 11284 28
9028 11281 11285 28
9029 11286 11287 28
9030 11286 11288 28
9031 11286 11289 28
9032 11286 11290 28
9033 11291 11292 28
9034 11291 11293 28
9035 11291 11294 28
9036 11291 11295 28
9037 11296 11297 28
9038 11296 11298 28
9039 11296 11299 28
9040 11296 11300 28
9041 11301 11302 28
9042 11301 11303 28
9043 11301 11304 28
9044 11301 11305 28
9045 11306 11307 28
9046 11306 11308 28
9047 11306 11309 28
9048 11306 11310 28
9049 11311 11312 28
9050 11311 11313 28
9051 11311 11314 28
9052 11311 11315 28
9053 11316 11317 28
9054 11316 11318 28
9055 11316 11319 28
9056 11316 11320 28
9057 11321 11322 28
9058 11321 11323 28
9059 11321 11324 28
9060 11321 11325 28
9061 11326 11327 28
9062 11326 11328 28
9063 11326 11329 28
9064 11326 11330 28
9065 11331 11332 28
9066 11331 11333 28
9067 11331 11334 28
9068 11331 11335 28
9069 11336 11337 28
9070 11336 11338 28
9071 11336 11339 28
9072 11336 11340 28
9073 11341 11342 28
9074 11341 11343 28
9075 11341 11344 28
9076 11341 11345 28
9077 11346 11347 28
9078 11346 11348 28
9079 11346 11349 28
9080 11346 11350 28
9081 11351 11352 28
9082 11351 11353 28
9083 11351 11354 28
9084 11351 11355 28
9085 11356 11357 28
9086 11356 11358 28
9087 11356 11359 28
9088 11356 11360 28
9089 11361 11362 28
9090 11361 11363 28
9091 11361 11364 28
9092 11361 11365 28
9093 11366 11367 28
9094 11366 11368 28
9095 11366 11369 28
9096 11366 11370 28
9097 11371 11372 28
9098 11371 11373 28
9099 11371 11374 28
9100 11371 11375 28
9101 11376 11377 28
9102 11376 11378 28
9103 11376 11379 28
9104 11376 11380 28
9105 11381 11382 28
9106 11381 11383 28
9107 11381 11384 28
9108 11381 11385 28
9109 11386 11387 28
9110 11386 11388 28
9111 11386 11389 28
9112 11386 11390 28
9113 11391 11392 28
9114 11391 11393 28
9115 11391 11394 28
9116 11391 11395 28
9117 11396 11397 28
9118 11396 11398 28
9119 11396 11399 28
9120 11396 11400 28
9121 11401 11402 28
9122 11401 11403 28
9123 11401 11404 28
9124 11401 11405 28
9125 11406 11407 28
9126 11406 11408 28
9127 11406 11409 28
9128 11406 11410 28
9129 11411 11412 28
9130 11411 11413 28
9131 11411 11414 28
9132 11411 11415 28
9133 11416 11417 28
9134 11416 11418 28
9135 11416 11419 28
9136 11416 11420 28
9137 11421 11422 28
9138 11421 11423 28
9139 11421 11424 28
9140 11421 11425 28
9141 11426 11427 28
9142 11426 11428 28
9143 11426 11429 28
9144 11426 11430 28
9145 11431 11432 28
9146 11431 11433 28
9147 11431 11434 28
9148 11431 11435 28
9149 11436 11437 28
9150 11436 11438 28
9151 11436 11439 28
9152 11436 11440 28
9153 11441 11442 28
9154 11441 11443 28
9155 11441 11444 28
9156 11441 11445 28
9157 11446 11447 28
9158 11446 11448 28
9159 11446 11449 28
9160 11446 11450 28
9161 11451 11452 28
9162 11451 11453 28
9163 11451 11454 28
9164 11451 11455 28
9165 11456 11457 28
9166 11456 11458 28
9167 11456 11459 28
9168 11456 11460 28
9169 11461 11462 28
9170 11461 11463 28
9171 11461 11464 28
9172 11461 11465 28
9173 11466 11467 28
9174 11466 11468 28
9175 11466 11469 28
9176 11466 11470 28
9177 11471 11472 28
9178 11471 11473 28
9179 11471 11474 28
9180 11471 11475 28
9181 11476 11477 28
9182 11476 11478 28
9183 11476 11479 28
9184 11476 11480 28
9185 11481 11482 28
9186 11481 11483 28
9187 11481 11484 28
9188 11481 11485 28
9189 11486 11487 28
9190 11486 11488 28
9191 11486 11489 28
9192 11486 11490 28
9193 11491 11492 28
9194 11491 11493 28
9195 11491 11494 28
9196 11491 11495 28
9197 11496 11497 28
9198 11496 11498 28
9199 11496 11499 28
9200 11496 11500 28
9201 11501 11502 28
9202 11501 11503 28
9203 11501 11504 28
9204 11501 11505 28
9205 11506 11507 28
9206 11506 11508 28
9207 11506 11509 28
9208 11506 11510 28
9209 11511 11512 28
9210 11511 11513 28
9211 11511 11514 28
9212 11511 11515 28
9213 11516 11517 28
9214 11516 11518 28
9215 11516 11519 28
9216 11516 11520 28
9217 11521 11522 28
9218 11521 11523 28
9219 11521 11524 28
9220 11521 11525 28
9221 11526 11527 28
9222 11526 11528 28
9223 11526 11529 28
9224 11526 11530 28
9225 11531 11532 28
9226 11531 11533 28
9227 11531 11534 28
9228 11531 11535 28
9229 11536 11537 28
9230 11536 11538 28
9231 11536 11539 28
9232 11536 11540 28
9233 11541 11542 28
9234 11541 11543 28
9235 11541 11544 28
9236 11541 11545 28
9237 11546 11547 28
9238 11546 11548 28
9239 11546 11549 28
9240 11546 11550 28
9241 11551 11552 28
9242 11551 11553 28
9243 11551 11554 28
9244 11551 11555 28
9245 11556 11557 28
9246 11556 11558 28
9247 11556 11559 28
9248 11556 11560 28
9249 11561 11562 28
9250 11561 11563 28
9251 11561 11564 28
9252 11561 11565 28
9253 11566 11567 28
9254 11566 11568 28
9255 11566 11569 28
9256 11566 11570 28
9257 11571 11572 28
9258 11571 11573 28
9259 11571 11574 28
9260 11571 11575 28
9261 11576 11577 28
9262 11576 11578 28
9263 11576 11579 28
9264 11576 11580 28
9265 11581 11582 28
9266 11581 11583 28
9267 11581 11584 28
9268 11581 11585 28
9269 11586 11587 28
9270 11586 11588 28
9271 11586 11589 28
9272 11586 11590 28
9273 11591 11592 28
9274 11591 11593 28
9275 11591 11594 28
9276 11591 11595 28
9277 11596 11597 28
9278 11596 11598 28
9279 11596 11599 28
9280 11596 11600 28
9281 11601 11602 28
9282 11601 11603 28
9283 11601 11604 28
9284 11601 11605 28
9285 11606 11607 28
9286 11606 11608 28
9287 11606 11609 28
9288 11606 11610 28
9289 11611 11612 28
9290 11611 11613 28
9291 11611 11614 28
9292 11611 11615 28
9293 11616 11617 28
9294 11616 11618 28
9295 11616 11619 28
9296 11616 11620 28
9297 11621 11622 28
9298 11621 11623 28
9299 11621 11624 28
9300 11621 11625 28
9301 11626 11627 28
9302 11626 11628 28
9303 11626 11629 28
9304 11626 11630 28
9305 11631 11632 28
9306 11631 11633 28
9307 11631 11634 28
9308 11631 11635 28
9309 11636 11637 28
9310 11636 11638 28
9311 11636 11639 28
9312 11636 11640 28
9313 11641 11642 28
9314 11641 11643 28
9315 11641 11644 28
9316 11641 11645 28
9317 11646 11647 28
9318 11646 11648 28
9319 11646 11649 28
9320 11646 11650 28
9321 11651 11652 28
9322 11651 11653 28
9323 11651 11654 28
9324 11651 11655 28
9325 11656 11657 28
9326 11656 11658 28
9327 11656 11659 28
9328 11656 11660 28
9329 11661 11662 28
9330 11661 11663 28
9331 11661 11664 28
9332 11661 11665 28
9333 11666 11667 28
9334 11666 11668 28
9335 11666 11669 28
9336 11666 11670 28
9337 11671 11672 28
9338 11671 11673 28
9339 11671 11674 28
9340 11671 11675 28
9341 11676 11677 28
9342 11676 11678 28
9343 11676 11679 28
9344 11676 11680 28
9345 11681 11682 28
9346 11681 11683 28
9347 11681 11684 28
9348 11681 11685 28
9349 11686 11687 28
9350 11686 11688 28
9351 11686 11689 28
9352 11686 11690 28
9353 11691 11692 28
9354 11691 11693 28
9355 11691 11694 28
9356 11691 11695 28
9357 11696 11697 28
9358 11696 11698 28
9359 11696 11699 28
9360 11696 11700 28
9361 11701 11702 28
9362 11701 11703 28
9363 11701 11704 28
9364 11701 11705 28
9365 11706 11707 28
9366 11706 11708 28
9367 11706 11709 28
9368 11706 11710 28
9369 11711 11712 28
9370 11711 11713 28
9371 11711 11714 28
9372 11711 11715 28
9373 11716 11717 28
9374 11716 11718 28
9375 11716 11719 28
9376 11716 11720 28
9377 11721 11722 28
9378 11721 11723 28
9379 11721 11724 28
9380 11721 11725 28
9381 11726 11727 28
9382 11726 11728 28
9383 11726 11729 28
9384 11726 11730 28
9385 11731 11732 28
9386 11731 11733 28
9387 11731 11734 28
9388 11731 11735 28
9389 11736 11737 28
9390 11736 11738 28
9391 11736 11739 28
9392 11736 11740 28
9393 11741 11742 28
9394 11741 11743 28
9395 11741 11744 28
9396 11741 11745 28
9397 11746 11747 28
9398 11746 11748 28
9399 11746 11749 28
9400 11746 11750 28
9401 11751 11752 28
9402 11751 11753 28
9403 11751 11754 28
9404 11751 11755 28
9405 11756 11757 28
9406 11756 11758 28
9407 11756 11759 28
9408 11756 11760 28
9409 11761 11762 28
9410 11761 11763 28
9411 11761 11764 28
9412 11761 11765 28
9413 11766 11767 28
9414 11766 11768 28
9415 11766 11769 28
9416 11766 11770 28
9417 11771 11772 28
9418 11771 11773 28
9419 11771 11774 28
9420 11771 11775 28
9421 11776 11777 28
9422 11776 11778 28
9423 11776 11779 28
9424 11776 11780 28
9425 11781 11782 28
9426 11781 11783 28
9427 11781 11784 28
9428 11781 11785 28
9429 11786 11787 28
9430 11786 11788 28
9431 11786 11789 28
9432 11786 11790 28
9433 11791 11792 28
9434 11791 11793 28
9435 11791 11794 28
9436 11791 11795 28
9437 11796 11797 28
9438 11796 11798 28
9439 11796 11799 28
9440 11796 11800 28
9441 11801 11802 28
9442 11801 11803 28
9443 11801 11804 28
9444 11801 11805 28
9445 11806 11807 28
9446 11806 11808 28
9447 11806 11809 28
9448 11806 11810 28
9449 11811 11812 28
9450 11811 11813 28
9451 11811 11814 28
9452 11811 11815 28
9453 11816 11817 28
9454 11816 11818 28
9455 11816 11819 28
9456 11816 11820 28
9457 11821 11822 28
9458 11821 11823 28
9459 11821 11824 28
9460 11821 11825 28
9461 11826 11827 28
9462 11826 11828 28
9463 11826 11829 28
9464 11826 11830 28
9465 11831 11832 28
9466 11831 11833 28
9467 11831 11834 28
9468 11831 11835 28
9469 11836 11837 28
9470 11836 11838 28
9471 11836 11839 28
9472 11836 11840 28
9473 11841 11842 28
9474 11841 11843 28
9475 11841 11844 28
9476 11841 11845 28
9477 11846 11847 28
9478 11846 11848 28
9479 11846 11849 28
9480 11846 11850 28
9481 11851 11852 28
9482 11851 11853 28
9483 11851 11854 28
9484 11851 11855 28
9485 11856 11857 28
9486 11856 11858 28
9487 11856 11859 28
9488 11856 11860 28
9489 11861 11862 28
9490 11861 11863 28
9491 11861 11864 28
9492 11861 11865 28
9493 11866 11867 28
9494 11866 11868 28
9495 11866 11869 28
9496 11866 11870 28
9497 11871 11872 28
9498 11871 11873 28
9499 11871 11874 28
9500 11871 11875 28
9501 11876 11877 28
9502 11876 11878 28
9503 11876 11879 28
9504 11876 11880 28
9505 11881 11882 28
9506 11881 11883 28
9507 11881 11884 28
9508 11881 11885 28
9509 11886 11887 28
9510 11886 11888 28
9511 11886 11889 28
9512 11886 11890 28
9513 11891 11892 28
9514 11891 11893 28
9515 11891 11894 28
9516 11891 11895 28
9517 11896 11897 28
9518 11896 11898 28
9519 11896 11899 28
9520 11896 11900 28
9521 11901 11902 28
9522 11901 11903 28
9523 11901 11904 28
9524 11901 11905 28
9525 11906 11907 28
9526 11906 11908 28
9527 11906 11909 28
9528 11906 11910 28
9529 11911 11912 28
9530 11911 11913 28
9531 11911 11914 28
9532 11911 11915 28
9533 11916 11917 28
9534 11916 11918 28
9535 11916 11919 28
9536 11916 11920 28
9537 11921 11922 28
9538 11921 11923 28
9539 11921 11924 28
9540 11921 11925 28
9541 11926 11927 28
9542 11926 11928 28
9543 11926 11929 28
9544 11926 11930 28
9545 11931 11932 28
9546 11931 11933 28
9547 11931 11934 28
9548 11931 11935 28
9549 11936 11937 28
9550 11936 11938 28
9551 11936 11939 28
9552 11936 11940 28
9553 11941 11942 28
9554 11941 11943 28
9555 11941 11944 28
9556 11941 11945 28
9557 11946 11947 28
9558 11946 11948 28
9559 11946 11949 28
9560 11946 11950 28
9561 11951 11952 28
9562 11951 11953 28
9563 11951 11954 28
9564 11951 11955 28
9565 11956 11957 28
9566 11956 11958 28
9567 11956 11959 28
9568 11956 11960 28
9569 11961 11962 28
9570 11961 11963 28
9571 11961 11964 28
9572 11961 11965 28
9573 11966 11967 28
9574 11966 11968 28
9575 11966 11969 28
9576 11966 11970 28
9577 11971 11972 28
9578 11971 11973 28
9579 11971 11974 28
9580 11971 11975 28
9581 11976 11977 28
9582 11976 11978 28
9583 11976 11979 28
9584 11976 11980 28
9585 11981 11982 28
9586 11981 11983 28
9587 11981 11984 28
9588 11981 11985 28
9589 11986 11987 28
9590 11986 11988 28
9591 11986 11989 28
9592 11986 11990 28
9593 11991 11992 28
9594 11991 11993 28
9595 11991 11994 28
9596 11991 11995 28
9597 11996 11997 28
9598 11996 11998 28
9599 11996 11999 28
9600 11996 12000 28
9601 12001 12002 28
9602 12001 12003 28
9603 12001 12004 28
9604 12001 12005 28
9605 12006 12007 28
9606 12006 12008 28
9607 12006 12009 28
9608 12006 12010 28
9609 12011 12012 28
9610 12011 12013 28
9611 12011 12014 28
9612 12011 12015 28
9613 12016 12017 28
9614 12016 12018 28
9615 12016 12019 28
9616 12016 12020 28
9617 12021 12022 28
9618 12021 12023 28
9619 12021 12024 28
9620 12021 12025 28
9621 12026 12027 28
9622 12026 12028 28
9623 12026 12029 28
9624 12026 12030 28
9625 12031 12032 28
9626 12031 12033 28
9627 12031 12034 28
9628 12031 12035 28
9629 12036 12037 28
9630 12036 12038 28
9631 12036 12039 28
9632 12036 12040 28
9633 12041 12042 28
9634 12041 12043 28
9635 12041 12044 28
9636 12041 12045 28
9637 12046 12047 28
9638 12046 12048 28
9639 12046 12049 28
9640 12046 12050 28
9641 12051 12052 28
9642 12051 12053 28
9643 12051 12054 28
9644 12051 12055 28
9645 12056 12057 28
9646 12056 12058 28
9647 12056 12059 28
9648 12056 12060 28
9649 12061 12062 28
9650 12061 12063 28
9651 12061 12064 28
9652 12061 12065 28
9653 12066 12067 28
9654 12066 12068 28
9655 12066 12069 28
9656 12066 12070 28
9657 12071 12072 28
9658 12071 12073 28
9659 12071 12074 28
9660 12071 12075 28
9661 12076 12077 28
9662 12076 12078 28
9663 12076 12079 28
9664 12076 12080 28
9665 12081 12082 28
9666 12081 12083 28
9667 12081 12084 28
9668 12081 12085 28
9669 12086 12087 28
9670 12086 12088 28
9671 12086 12089 28
9672 12086 12090 28
9673 12091 12092 28
9674 12091 12093 28
9675 12091 12094 28
9676 12091 12095 28
9677 12096 12097 28
9678 12096 12098 28
9679 12096 12099 28
9680 12096 12100 28
9681 12101 12102 28
9682 12101 12103 28
9683 12101 12104 28
9684 12101 12105 28
9685 12106 12107 28
9686 12106 12108 28
9687 12106 12109 28
9688 12106 12110 28
9689 12111 12112 28
9690 12111 12113 28
9691 12111 12114 28
9692 12111 12115 28
9693 12116 12117 28
9694 12116 12118 28
9695 12116 12119 28
9696 12116 12120 28
9697 12121 12122 28
9698 12121 12123 28
9699 12121 12124 28
9700 12121 12125 28
9701 12126 12127 28
9702 12126 12128 28
9703 12126 12129 28
9704 12126 12130 28
9705 12131 12132 28
9706 12131 12133 28
9707 12131 12134 28
9708 12131 12135 28
9709 12136 12137 28
9710 12136 12138 28
9711 12136 12139 28
9712 12136 12140 28
9713 12141 12142 28
9714 12141 12143 28
9715 12141 12144 28
9716 12141 12145 28
9717 12146 12147 28
9718 12146 12148 28
9719 12146 12149 28
9720 12146 12150 28
9721 12151 12152 28
9722 12151 12153 28
9723 12151 12154 28
9724 12151 12155 28
9725 12156 12157 28
9726 12156 12158 28
9727 12156 12159 28
9728 12156 12160 28
9729 12161 12162 28
9730 12161 12163 28
9731 12161 12164 28
9732 12161 12165 28
9733 12166 12167 28
9734 12166 12168 28
9735 12166 12169 28
9736 12166 12170 28
9737 12171 12172 28
9738 12171 12173 28
9739 12171 12174 28
9740 12171 12175 28
9741 12176 12177 28
9742 12176 12178 28
9743 12176 12179 28
9744 12176 12180 28
9745 12181 12182 28
9746 12181 12183 28
9747 12181 12184 28
9748 12181 12185 28
9749 12186 12187 28
9750 12186 12188 28
9751 12186 12189 28
9752 12186 12190 28
9753 12191 12192 28
9754 12191 12193 28
9755 12191 12194 28
9756 12191 12195 28
9757 12196 12197 28
9758 12196 12198 28
9759 12196 12199 28
9760 12196 12200 28
9761 12201 12202 28
9762 12201 12203 28
9763 12201 12204 28
9764 12201 12205 28
9765 12206 12207 28
9766 12206 12208 28
9767 12206 12209 28
9768 12206 12210 28
9769 12211 12212 28
9770 12211 12213 28
9771 12211 12214 28
9772 12211 12215 28
9773 12216 12217 28
9774 12216 12218 28
9775 12216 12219 28
9776 12216 12220 28
9777 12221 12222 28
9778 12221 12223 28
9779 12221 12224 28
9780 12221 12225 28
9781 12226 12227 28
9782 12226 12228 28
9783 12226 12229 28
9784 12226 12230 28
9785 12231 12232 28
9786 12231 12233 28
9787 12231 12234 28
9788 12231 12235 28
9789 12236 12237 28
9790 12236 12238 28
9791 12236 12239 28
9792 12236 12240 28
9793 12241 12242 28
9794 12241 12243 28
9795 12241 12244 28
9796 12241 12245 28
9797 12246 12247 28
9798 12246 12248 28
9799 12246 12249 28
9800 12246 12250 28
9801 12251 12252 28
9802 12251 12253 28
9803 12251 12254 28
9804 12251 12255 28
9805 12256 12257 28
9806 12256 12258 28
9807 12256 12259 28
9808 12256 12260 28
9809 12261 12262 28
9810 12261 12263 28
9811 12261 12264 28
9812 12261 12265 28
9813 12266 12267 28
9814 12266 12268 28
9815 12266 12269 28
9816 12266 12270 28
9817 12271 12272 28
9818 12271 12273 28
9819 12271 12274 28
9820 12271 12275 28
9821 12276 12277 28
9822 12276 12278 28
9823 12276 12279 28
9824 12276 12280 28
9825 12281 12282 28
9826 12281 12283 28
9827 12281 12284 28
9828 12281 12285 28
9829 12286 12287 28
9830 12286 12288 28
9831 12286 12289 28
9832 12286 12290 28
9833 12291 12292 28
9834 12291 12293 28
9835 12291 12294 28
9836 12291 12295 28
9837 12296 12297 28
9838 12296 12298 28
9839 12296 12299 28
9840 12296 12300 28
9841 12301 12302 28
9842 12301 12303 28
9843 12301 12304 28
9844 12301 12305 28
9845 12306 12307 28
9846 12306 12308 28
9847 12306 12309 28
9848 12306 12310 28
9849 12311 12312 28
9850 12311 12313 28
9851 12311 12314 28
9852 12311 12315 28
9853 12316 12317 28
9854 12316 12318 28
9855 12316 12319 28
9856 12316 12320 28
9857 12321 12322 28
9858 12321 12323 28
9859 12321 12324 28
9860 12321 12325 28
9861 12326 12327 28
9862 12326 12328 28
9863 12326 12329 28
9864 12326 12330 28
9865 12331 12332 28
9866 12331 12333 28
9867 12331 12334 28
9868 12331 12335 28
9869 12336 12337 28
9870 12336 12338 28
9871 12336 12339 28
9872 12336 12340 28
9873 12341 12342 28
9874 12341 12343 28
9875 12341 12344 28
9876 12341 12345 28
9877 12346 12347 28
9878 12346 12348 28
9879 12346 12349 28
9880 12346 12350 28
9881 12351 12352 28
9882 12351 12353 28
9883 12351 12354 28
9884 12351 12355 28
9885 12356 12357 28
9886 12356 12358 28
9887 12356 12359 28
9888 12356 12360 28
9889 12361 12362 28
9890 12361 12363 28
9891 12361 12364 28
9892 12361 12365 28
9893 12366 12367 28
9894 12366 12368 28
9895 12366 12369 28
9896 12366 12370 28
9897 12371 12372 28
9898 12371 12373 28
9899 12371 12374 28
9900 12371 12375 28
9901 12376 12377 28
9902 12376 12378 28
9903 12376 12379 28
9904 12376 12380 28
9905 12381 12382 28
9906 12381 12383 28
9907 12381 12384 28
9908 12381 12385 28
9909 12386 12387 28
9910 12386 12388 28
9911 12386 12389 28
9912 12386 12390 28
9913 12391 12392 28
9914 12391 12393 28
9915 12391 12394 28
9916 12391 12395 28
9917 12396 12397 28
9918 12396 12398 28
9919 12396 12399 28
9920 12396 12400 28
9921 12401 12402 28
9922 12401 12403 28
9923 12401 12404 28
9924 12401 12405 28
9925 12406 12407 28
9926 12406 12408 28
9927 12406 12409 28
9928 12406 12410 28
9929 12411 12412 28
9930 12411 12413 28
9931 12411 12414 28
9932 12411 12415 28
9933 12416 12417 28
9934 12416 12418 28
9935 12416 12419 28
9936 12416 12420 28
9937 12421 12422 28
9938 12421 12423 28
9939 12421 12424 28
9940 12421 12425 28
9941 12426 12427 28
9942 12426 12428 28
9943 12426 12429 28
9944 12426 12430 28
9945 12431 12432 28
9946 12431 12433 28
9947 12431 12434 28
9948 12431 12435 28
9949 12436 12437 28
9950 12436 12438 28
9951 12436 12439 28
9952 12436 12440 28
9953 12441 12442 28
9954 12441 12443 28
9955 12441 12444 28
9956 12441 12445 28
9957 12446 12447 28
9958 12446 12448 28
9959 12446 12449 28
9960 12446 12450 28
9961 12451 12452 28
9962 12451 12453 28
9963 12451 12454 28
9964 12451 12455 28
9965 12456 12457 28
9966 12456 12458 28
9967 12456 12459 28
9968 12456 12460 28
9969 12461 12462 28
9970 12461 12463 28
9971 12461 12464 28
9972 12461 12465 28
9973 12466 12467 28
9974 12466 12468 28
9975 12466 12469 28
9976 12466 12470 28
9977 12471 12472 28
9978 12471 12473 28
9979 12471 12474 28
9980 12471 12475 28
9981 12476 12477 28
9982 12476 12478 28
9983 12476 12479 28
9984 12476 12480 28
9985 12481 12482 28
9986 12481 12483 28
9987 12481 12484 28
9988 12481 12485 28
9989 12486 12487 28
9990 12486 12488 28
9991 12486 12489 28
9992 12486 12490 28
9993 12491 12492 28
9994 12491 12493 28
9995 12491 12494 28
9996 12491 12495 28
9997 12496 12497 28
9998 12496 12498 28
9999 12496 12499 28
10000 12496 12500 28
10001 12501 12502 28
10002 12501 12503 28
10003 12501 12504 28
10004 12501 12505 28
10005 12506 12507 28
10006 12506 12508 28
10007 12506 12509 28
10008 12506 12510 28
10009 12511 12512 28
10010 12511 12513 28
10011 12511 12514 28
10012 12511 12515 28
10013 12516 12517 28
10014 12516 12518 28
10015 12516 12519 28
10016 12516 12520 28
10017 12521 12522 28
10018 12521 12523 28
10019 12521 12524 28
10020 12521 12525 28
10021 12526 12527 28
10022 12526 12528 28
10023 12526 12529 28
10024 12526 12530 28
10025 12531 12532 28
10026 12531 12533 28
10027 12531 12534 28
10028 12531 12535 28
10029 12536 12537 28
10030 12536 12538 28
10031 12536 12539 28
10032 12536 12540 28
10033 12541 12542 28
10034 12541 12543 28
10035 12541 12544 28
10036 12541 12545 28
10037 12546 12547 28
10038 12546 12548 28
10039 12546 12549 28
10040 12546 12550 28
10041 12551 12552 28
10042 12551 12553 28
10043 12551 12554 28
10044 12551 12555 28
10045 12556 12557 28
10046 12556 12558 28
10047 12556 12559 28
10048 12556 12560 28
10049 12561 12562 28
10050 12561 12563 28
10051 12561 12564 28
10052 12561 12565 28
10053 12566 12567 28
10054 12566 12568 28
10055 12566 12569 28
10056 12566 12570 28
10057 12571 12572 28
10058 12571 12573 28
10059 12571 12574 28
10060 12571 12575 28
10061 12576 12577 28
10062 12576 12578 28
10063 12576 12579 28
10064 12576 12580 28
10065 12581 12582 28
10066 12581 12583 28
10067 12581 12584 28
10068 12581 12585 28
10069 12586 12587 28
10070 12586 12588 28
10071 12586 12589 28
10072 12586 12590 28
10073 12591 12592 28
10074 12591 12593 28
10075 12591 12594 28
10076 12591 12595 28
10077 12596 12597 28
10078 12596 12598 28
10079 12596 12599 28
10080 12596 12600 28
10081 12601 12602 28
10082 12601 12603 28
10083 12601 12604 28
10084 12601 12605 28
10085 12606 12607 28
10086 12606 12608 28
10087 12606 12609 28
10088 12606 12610 28
10089 12611 12612 28
10090 12611 12613 28
10091 12611 12614 28
10092 12611 12615 28
10093 12616 12617 28
10094 12616 12618 28
10095 12616 12619 28
10096 12616 12620 28
10097 12621 12622 28
10098 12621 12623 28
10099 12621 12624 28
10100 12621 12625 28
10101 12626 12627 28
10102 12626 12628 28
10103 12626 12629 28
10104 12626 12630 28
10105 12631 12632 28
10106 12631 12633 28
10107 12631 12634 28
10108 12631 12635 28
10109 12636 12637 28
10110 12636 12638 28
10111 12636 12639 28
10112 12636 12640 28
10113 12641 12642 28
10114 12641 12643 28
10115 12641 12644 28
10116 12641 12645 28
10117 12646 12647 28
10118 12646 12648 28
10119 12646 12649 28
10120 12646 12650 28
10121 12651 12652 28
10122 12651 12653 28
10123 12651 12654 28
10124 12651 12655 28
10125 12656 12657 28
10126 12656 12658 28
10127 12656 12659 28
10128 12656 12660 28
10129 12661 12662 28
10130 12661 12663 28
10131 12661 12664 28
10132 12661 12665 28
10133 12666 12667 28
10134 12666 12668 28
10135 12666 12669 28
10136 12666 12670 28
10137 12671 12672 28
10138 12671 12673 28
10139 12671 12674 28
10140 12671 12675 28
10141 12676 12677 28
10142 12676 12678 28
10143 12676 12679 28
10144 12676 12680 28
10145 12681 12682 28
10146 12681 12683 28
10147 12681 12684 28
10148 12681 12685 28
10149 12686 12687 28
10150 12686 12688 28
10151 12686 12689 28
10152 12686 12690 28
10153 12691 12692 28
10154 12691 12693 28
10155 12691 12694 28
10156 12691 12695 28
10157 12696 12697 28
10158 12696 12698 28
10159 12696 12699 28
10160 12696 12700 28
10161 12701 12702 28
10162 12701 12703 28
10163 12701 12704 28
10164 12701 12705 28
10165 12706 12707 28
10166 12706 12708 28
10167 12706 12709 28
10168 12706 12710 28
10169 12711 12712 28
10170 12711 12713 28
10171 12711 12714 28
10172 12711 12715 28
10173 12716 12717 28
10174 12716 12718 28
10175 12716 12719 28
10176 12716 12720 28
10177 12721 12722 28
10178 12721 12723 28
10179 12721 12724 28
10180 12721 12725 28
10181 12726 12727 28
10182 12726 12728 28
10183 12726 12729 28
10184 12726 12730 28
10185 12731 12732 28
10186 12731 12733 28
10187 12731 12734 28
10188 12731 12735 28
10189 12736 12737 28
10190 12736 12738 28
10191 12736 12739 28
10192 12736 12740 28
10193 12741 12742 28
10194 12741 12743 28
10195 12741 12744 28
10196 12741 12745 28
10197 12746 12747 28
10198 12746 12748 28
10199 12746 12749 28
10200 12746 12750 28
10201 12751 12752 28
10202 12751 12753 28
10203 12751 12754 28
10204 12751 12755 28
10205 12756 12757 28
10206 12756 12758 28
10207 12756 12759 28
10208 12756 12760 28
10209 12761 12762 28
10210 12761 12763 28
10211 12761 12764 28
10212 12761 12765 28
10213 12766 12767 28
10214 12766 12768 28
10215 12766 12769 28
10216 12766 12770 28
10217 12771 12772 28
10218 12771 12773 28
10219 12771 12774 28
10220 12771 12775 28
10221 12776 12777 28
10222 12776 12778 28
10223 12776 12779 28
10224 12776 12780 28
10225 12781 12782 28
10226 12781 12783 28
10227 12781 12784 28
10228 12781 12785 28
10229 12786 12787 28
10230 12786 12788 28
10231 12786 12789 28
10232 12786 12790 28
10233 12791 12792 28
10234 12791 12793 28
10235 12791 12794 28
10236 12791 12795 28
10237 12796 12797 28
10238 12796 12798 28
10239 12796 12799 28
10240 12796 12800 28
10241 12801 12802 28
10242 12801 12803 28
10243 12801 12804 28
10244 12801 12805 28
10245 12806 12807 28
10246 12806 12808 28
10247 12806 12809 28
10248 12806 12810 28
10249 12811 12812 28
10250 12811 12813 28
10251 12811 12814 28
10252 12811 12815 28
10253 12816 12817 28
10254 12816 12818 28
10255 12816 12819 28
10256 12816 12820 28
10257 12821 12822 28
10258 12821 12823 28
10259 12821 12824 28
10260 12821 12825 28
10261 12826 12827 28
10262 12826 12828 28
10263 12826 12829 28
10264 12826 12830 28
10265 12831 12832 28
10266 12831 12833 28
10267 12831 12834 28
10268 12831 12835 28
10269 12836 12837 28
10270 12836 12838 28
10271 12836 12839 28
10272 12836 12840 28
10273 12841 12842 28
10274 12841 12843 28
10275 12841 12844 28
10276 12841 12845 28
10277 12846 12847 28
10278 12846 12848 28
10279 12846 12849 28
10280 12846 12850 28
10281 12851 12852 28
10282 12851 12853 28
10283 12851 12854 28
10284 12851 12855 28
10285 12856 12857 28
10286 12856 12858 28
10287 12856 12859 28
10288 12856 12860 28
10289 12861 12862 28
10290 12861 12863 28
10291 12861 12864 28
10292 12861 12865 28
10293 12866 12867 28
10294 12866 12868 28
10295 12866 12869 28
10296 12866 12870 28
10297 12871 12872 28
10298 12871 12873 28
10299 12871 12874 28
10300 12871 12875 28
10301 12876 12877 28
10302 12876 12878 28
10303 12876 12879 28
10304 12876 12880 28
10305 12881 12882 28
10306 12881 12883 28
10307 12881 12884 28
10308 12881 12885 28
10309 12886 12887 28
10310 12886 12888 28
10311 12886 12889 28
10312 12886 12890 28
10313 12891 12892 28
10314 12891 12893 28
10315 12891 12894 28
10316 12891 12895 28
10317 12896 12897 28
10318 12896 12898 28
10319 12896 12899 28
10320 12896 12900 28
10321 12901 12902 28
10322 12901 12903 28
10323 12901 12904 28
10324 12901 12905 28
10325 12906 12907 28
10326 12906 12908 28
10327 12906 12909 28
10328 12906 12910 28
10329 12911 12912 28
10330 12911 12913 28
10331 12911 12914 28
10332 12911 12915 28
10333 12916 12917 28
10334 12916 12918 28
10335 12916 12919 28
10336 12916 12920 28
10337 12921 12922 28
10338 12921 12923 28
10339 12921 12924 28
10340 12921 12925 28
10341 12926 12927 28
10342 12926 12928 28
10343 12926 12929 28
10344 12926 12930 28
10345 12931 12932 28
10346 12931 12933 28
10347 12931 12934 28
10348 12931 12935 28
10349 12936 12937 28
10350 12936 12938 28
10351 12936 12939 28
10352 12936 12940 28
10353 12941 12942 28
10354 12941 12943 28
10355 12941 12944 28
10356 12941 12945 28
10357 12946 12947 28
10358 12946 12948 28
10359 12946 12949 28
10360 12946 12950 28
10361 12951 12952 28
10362 12951 12953 28
10363 12951 12954 28
10364 12951 12955 28
10365 12956 12957 28
10366 12956 12958 28
10367 12956 12959 28
10368 12956 12960 28
10369 12961 12962 28
10370 12961 12963 28
10371 12961 12964 28
10372 12961 12965 28
10373 12966 12967 28
10374 12966 12968 28
10375 12966 12969 28
10376 12966 12970 28
10377 12971 12972 28
10378 12971 12973 28
10379 12971 12974 28
10380 12971 12975 28
10381 12976 12977 28
10382 12976 12978 28
10383 12976 12979 28
10384 12976 12980 28
10385 12981 12982 28
10386 12981 12983 28
10387 12981 12984 28
10388 12981 12985 28
10389 12986 12987 28
10390 12986 12988 28
10391 12986 12989 28
10392 12986 12990 28
10393 12991 12992 28
10394 12991 12993 28
10395 12991 12994 28
10396 12991 12995 28
10397 12996 12997 28
10398 12996 12998 28
10399 12996 12999 28
10400 12996 13000 28
10401 13001 13002 28
10402 13001 13003 28
10403 13001 13004 28
10404 13001 13005 28
10405 13006 13007 28
10406 13006 13008 28
10407 13006 13009 28
10408 13006 13010 28
10409 13011 13012 28
10410 13011 13013 28
10411 13011 13014 28
10412 13011 13015 28
10413 13016 13017 28
10414 13016 13018 28
10415 13016 13019 28
10416 13016 13020 28
10417 13021 13022 28
10418 13021 13023 28
10419 13021 13024 28
10420 13021 13025 28
10421 13026 13027 28
10422 13026 13028 28
10423 13026 13029 28
10424 13026 13030 28
10425 13031 13032 28
10426 13031 13033 28
10427 13031 13034 28
10428 13031 13035 28
10429 13036 13037 28
10430 13036 13038 28
10431 13036 13039 28
10432 13036 13040 28
10433 13041 13042 28
10434 13041 13043 28
10435 13041 13044 28
10436 13041 13045 28
10437 13046 13047 28
10438 13046 13048 28
10439 13046 13049 28
10440 13046 13050 28
10441 13051 13052 28
10442 13051 13053 28
10443 13051 13054 28
10444 13051 13055 28
10445 13056 13057 28
10446 13056 13058 28
10447 13056 13059 28
10448 13056 13060 28
10449 13061 13062 28
10450 13061 13063 28
10451 13061 13064 28
10452 13061 13065 28
10453 13066 13067 28
10454 13066 13068 28
10455 13066 13069 28
10456 13066 13070 28
10457 13071 13072 28
10458 13071 13073 28
10459 13071 13074 28
10460 13071 13075 28
10461 13076 13077 28
10462 13076 13078 28
10463 13076 13079 28
10464 13076 13080 28
10465 13081 13082 28
10466 13081 13083 28
10467 13081 13084 28
10468 13081 13085 28
10469 13086 13087 28
10470 13086 13088 28
10471 13086 13089 28
10472 13086 13090 28
10473 13091 13092 28
10474 13091 13093 28
10475 13091 13094 28
10476 13091 13095 28
10477 13096 13097 28
10478 13096 13098 28
10479 13096 13099 28
10480 13096 13100 28
10481 13101 13102 28
10482 13101 13103 28
10483 13101 13104 28
10484 13101 13105 28
10485 13106 13107 28
10486 13106 13108 28
10487 13106 13109 28
10488 13106 13110 28
10489 13111 13112 28
10490 13111 13113 28
10491 13111 13114 28
10492 13111 13115 28
10493 13116 13117 28
10494 13116 13118 28
10495 13116 13119 28
10496 13116 13120 28
10497 13121 13122 28
10498 13121 13123 28
10499 13121 13124 28
10500 13121 13125 28
10501 13126 13127 28
10502 13126 13128 28
10503 13126 13129 28
10504 13126 13130 28
10505 13131 13132 28
10506 13131 13133 28
10507 13131 13134 28
10508 13131 13135 28
10509 13136 13137 28
10510 13136 13138 28
10511 13136 13139 28
10512 13136 13140 28
10513 13141 13142 28
10514 13141 13143 28
10515 13141 13144 28
10516 13141 13145 28
10517 13146 13147 28
10518 13146 13148 28
10519 13146 13149 28
10520 13146 13150 28
10521 13151 13152 28
10522 13151 13153 28
10523 13151 13154 28
10524 13151 13155 28
10525 13156 13157 28
10526 13156 13158 28
10527 13156 13159 28
10528 13156 13160 28
10529 13161 13162 28
10530 13161 13163 28
10531 13161 13164 28
10532 13161 13165 28
10533 13166 13167 28
10534 13166 13168 28
10535 13166 13169 28
10536 13166 13170 28
10537 13171 13172 28
10538 13171 13173 28
10539 13171 13174 28
10540 13171 13175 28
10541 13176 13177 28
10542 13176 13178 28
10543 13176 13179 28
10544 13176 13180 28
10545 13181 13182 28
10546 13181 13183 28
10547 13181 13184 28
10548 13181 13185 28
10549 13186 13187 28
10550 13186 13188 28
10551 13186 13189 28
10552 13186 13190 28
10553 13191 13192 28
10554 13191 13193 28
10555 13191 13194 28
10556 13191 13195 28
10557 13196 13197 28
10558 13196 13198 28
10559 13196 13199 28
10560 13196 13200 28
10561 13201 13202 28
10562 13201 13203 28
10563 13201 13204 28
10564 13201 13205 28
10565 13206 13207 28
10566 13206 13208 28
10567 13206 13209 28
10568 13206 13210 28
10569 13211 13212 28
10570 13211 13213 28
10571 13211 13214 28
10572 13211 13215 28
10573 13216 13217 28
10574 13216 13218 28
10575 13216 13219 28
10576 13216 13220 28
10577 13221 13222 28
10578 13221 13223 28
10579 13221 13224 28
10580 13221 13225 28
10581 13226 13227 28
10582 13226 13228 28
10583 13226 13229 28
10584 13226 13230 28
10585 13231 13232 28
10586 13231 13233 28
10587 13231 13234 28
10588 13231 13235 28
10589 13236 13237 28
10590 13236 13238 28
10591 13236 13239 28
10592 13236 13240 28
10593 13241 13242 28
10594 13241 13243 28
10595 13241 13244 28
10596 13241 13245 28
10597 13246 13247 28
10598 13246 13248 28
10599 13246 13249 28
10600 13246 13250 28
10601 13251 13252 28
10602 13251 13253 28
10603 13251 13254 28
10604 13251 13255 28
10605 13256 13257 28
10606 13256 13258 28
10607 13256 13259 28
10608 13256 13260 28
10609 13261 13262 28
10610 13261 13263 28
10611 13261 13264 28
10612 13261 13265 28
10613 13266 13267 28
10614 13266 13268 28
10615 13266 13269 28
10616 13266 13270 28
10617 13271 13272 28
10618 13271 13273 28
10619 13271 13274 28
10620 13271 13275 28
10621 13276 13277 28
10622 13276 13278 28
10623 13276 13279 28
10624 13276 13280 28
10625 13281 13282 28
10626 13281 13283 28
10627 13281 13284 28
10628 13281 13285 28
10629 13286 13287 28
10630 13286 13288 28
10631 13286 13289 28
10632 13286 13290 28
10633 13291 13292 28
10634 13291 13293 28
10635 13291 13294 28
10636 13291 13295 28
10637 13296 13297 28
10638 13296 13298 28
10639 13296 13299 28
10640 13296 13300 28
10641 13301 13302 28
10642 13301 13303 28
10643 13301 13304 28
10644 13301 13305 28
10645 13306 13307 28
10646 13306 13308 28
10647 13306 13309 28
10648 13306 13310 28
10649 13311 13312 28
10650 13311 13313 28
10651 13311 13314 28
10652 13311 13315 28
10653 13316 13317 28
10654 13316 13318 28
10655 13316 13319 28
10656 13316 13320 28
10657 13321 13322 28
10658 13321 13323 28
10659 13321 13324 28
10660 13321 13325 28
10661 13326 13327 28
10662 13326 13328 28
10663 13326 13329 28
10664 13326 13330 28
10665 13331 13332 28
10666 13331 13333 28
10667 13331 13334 28
10668 13331 13335 28
10669 13336 13337 28
10670 13336 13338 28
10671 13336 13339 28
10672 13336 13340 28
10673 13341 13342 28
10674 13341 13343 28
10675 13341 13344 28
10676 13341 13345 28
10677 13346 13347 28
10678 13346 13348 28
10679 13346 13349 28
10680 13346 13350 28
10681 13351 13352 28
10682 13351 13353 28
10683 13351 13354 28
10684 13351 13355 28
10685 13356 13357 28
10686 13356 13358 28
10687 13356 13359 28
10688 13356 13360 28
10689 13361 13362 28
10690 13361 13363 28
10691 13361 13364 28
10692 13361 13365 28
10693 13366 13367 28
10694 13366 13368 28
10695 13366 13369 28
10696 13366 13370 28
10697 13371 13372 28
10698 13371 13373 28
10699 13371 13374 28
10700 13371 13375 28
10701 13376 13377 28
10702 13376 13378 28
10703 13376 13379 28
10704 13376 13380 28
10705 13381 13382 28
10706 13381 13383 28
10707 13381 13384 28
10708 13381 13385 28
10709 13386 13387 28
10710 13386 13388 28
10711 13386 13389 28
10712 13386 13390 28
10713 13391 13392 28
10714 13391 13393 28
10715 13391 13394 28
10716 13391 13395 28
10717 13396 13397 28
10718 13396 13398 28
10719 13396 13399 28
10720 13396 13400 28
10721 13401 13402 28
10722 13401 13403 28
10723 13401 13404 28
10724 13401 13405 28
10725 13406 13407 28
10726 13406 13408 28
10727 13406 13409 28
10728 13406 13410 28
10729 13411 13412 28
10730 13411 13413 28
10731 13411 13414 28
10732 13411 13415 28
10733 13416 13417 28
10734 13416 13418 28
10735 13416 13419 28
10736 13416 13420 28
10737 13421 13422 28
10738 13421 13423 28
10739 13421 13424 28
10740 13421 13425 28
10741 13426 13427 28
10742 13426 13428 28
10743 13426 13429 28
10744 13426 13430 28
10745 13431 13432 28
10746 13431 13433 28
10747 13431 13434 28
10748 13431 13435 28
10749 13436 13437 28
10750 13436 13438 28
10751 13436 13439 28
10752 13436 13440 28
10753 13441 13442 28
10754 13441 13443 28
10755 13441 13444 28
10756 13441 13445 28
10757 13446 13447 28
10758 13446 13448 28
10759 13446 13449 28
10760 13446 13450 28
10761 13451 13452 28
10762 13451 13453 28
10763 13451 13454 28
10764 13451 13455 28
10765 13456 13457 28
10766 13456 13458 28
10767 13456 13459 28
10768 13456 13460 28
10769 13461 13462 28
10770 13461 13463 28
10771 13461 13464 28
10772 13461 13465 28
10773 13466 13467 28
10774 13466 13468 28
10775 13466 13469 28
10776 13466 13470 28
10777 13471 13472 28
10778 13471 13473 28
10779 13471 13474 28
10780 13471 13475 28
10781 13476 13477 28
10782 13476 13478 28
10783 13476 13479 28
10784 13476 13480 28
10785 13481 13482 28
10786 13481 13483 28
10787 13481 13484 28
10788 13481 13485 28
10789 13486 13487 28
10790 13486 13488 28
10791 13486 13489 28
10792 13486 13490 28
10793 13491 13492 28
10794 13491 13493 28
10795 13491 13494 28
10796 13491 13495 28
10797 13496 13497 28
10798 13496 13498 28
10799 13496 13499 28
10800 13496 13500 28
10801 13501 13502 28
10802 13501 13503 28
10803 13501 13504 28
10804 13501 13505 28
10805 13506 13507 28
10806 13506 13508 28
10807 13506 13509 28
10808 13506 13510 28
10809 13511 13512 28
10810 13511 13513 28
10811 13511 13514 28
10812 13511 13515 28
10813 13516 13517 28
10814 13516 13518 28
10815 13516 13519 28
10816 13516 13520 28
10817 13521 13522 28
10818 13521 13523 28
10819 13521 13524 28
10820 13521 13525 28
10821 13526 13527 28
10822 13526 13528 28
10823 13526 13529 28
10824 13526 13530 28
10825 13531 13532 28
10826 13531 13533 28
10827 13531 13534 28
10828 13531 13535 28
10829 13536 13537 28
10830 13536 13538 28
10831 13536 13539 28
10832 13536 13540 28
10833 13541 13542 28
10834 13541 13543 28
10835 13541 13544 28
10836 13541 13545 28
10837 13546 13547 28
10838 13546 13548 28
10839 13546 13549 28
10840 13546 13550 28
10841 13551 13552 28
10842 13551 13553 28
10843 13551 13554 28
10844 13551 13555 28
10845 13556 13557 28
10846 13556 13558 28
10847 13556 13559 28
10848 13556 13560 28
10849 13561 13562 28
10850 13561 13563 28
10851 13561 13564 28
10852 13561 13565 28
10853 13566 13567 28
10854 13566 13568 28
10855 13566 13569 28
10856 13566 13570 28
10857 13571 13572 28
10858 13571 13573 28
10859 13571 13574 28
10860 13571 13575 28
10861 13576 13577 28
10862 13576 13578 28
10863 13576 13579 28
10864 13576 13580 28
10865 13581 13582 28
10866 13581 13583 28
10867 13581 13584 28
10868 13581 13585 28
10869 13586 13587 28
10870 13586 13588 28
10871 13586 13589 28
10872 13586 13590 28
10873 13591 13592 28
10874 13591 13593 28
10875 13591 13594 28
10876 13591 13595 28
10877 13596 13597 28
10878 13596 13598 28
10879 13596 13599 28
10880 13596 13600 28
10881 13601 13602 28
10882 13601 13603 28
10883 13601 13604 28
10884 13601 13605 28
10885 13606 13607 28
10886 13606 13608 28
10887 13606 13609 28
10888 13606 13610 28
10889 13611 13612 28
10890 13611 13613 28
10891 13611 13614 28
10892 13611 13615 28
10893 13616 13617 28
10894 13616 13618 28
10895 13616 13619 28
10896 13616 13620 28
10897 13621 13622 28
10898 13621 13623 28
10899 13621 13624 28
10900 13621 13625 28
10901 13626 13627 28
10902 13626 13628 28
10903 13626 13629 28
10904 13626 13630 28
10905 13631 13632 28
10906 13631 13633 28
10907 13631 13634 28
10908 13631 13635 28
10909 13636 13637 28
10910 13636 13638 28
10911 13636 13639 28
10912 13636 13640 28
10913 13641 13642 28
10914 13641 13643 28
10915 13641 13644 28
10916 13641 13645 28
10917 13646 13647 28
10918 13646 13648 28
10919 13646 13649 28
10920 13646 13650 28
10921 13651 13652 28
10922 13651 13653 28
10923 13651 13654 28
10924 13651 13655 28
10925 13656 13657 28
10926 13656 13658 28
10927 13656 13659 28
10928 13656 13660 28
10929 13661 13662 28
10930 13661 13663 28
10931 13661 13664 28
10932 13661 13665 28
10933 13666 13667 28
10934 13666 13668 28
10935 13666 13669 28
10936 13666 13670 28
10937 13671 13672 28
10938 13671 13673 28
10939 13671 13674 28
10940 13671 13675 28
10941 13676 13677 28
10942 13676 13678 28
10943 13676 13679 28
10944 13676 13680 28
10945 13681 13682 28
10946 13681 13683 28
10947 13681 13684 28
10948 13681 13685 28
10949 13686 13687 28
10950 13686 13688 28
10951 13686 13689 28
10952 13686 13690 28
10953 13691 13692 28
10954 13691 13693 28
10955 13691 13694 28
10956 13691 13695 28
10957 13696 13697 28
10958 13696 13698 28
10959 13696 13699 28
10960 13696 13700 28
10961 13701 13702 28
10962 13701 13703 28
10963 13701 13704 28
10964 13701 13705 28
10965 13706 13707 28
10966 13706 13708 28
10967 13706 13709 28
10968 13706 13710 28
10969 13711 13712 28
10970 13711 13713 28
10971 13711 13714 28
10972 13711 13715 28
10973 13716 13717 28
10974 13716 13718 28
10975 13716 13719 28
10976 13716 13720 28
10977 13721 13722 28
10978 13721 13723 28
10979 13721 13724 28
10980 13721 13725 28
10981 13726 13727 28
10982 13726 13728 28
10983 13726 13729 28
10984 13726 13730 28
10985 13731 13732 28
10986 13731 13733 28
10987 13731 13734 28
10988 13731 13735 28
10989 13736 13737 28
10990 13736 13738 28
10991 13736 13739 28
10992 13736 13740 28
10993 13741 13742 28
10994 13741 13743 28
10995 13741 13744 28
10996 13741 13745 28
10997 13746 13747 28
10998 13746 13748 28
10999 13746 13749 28
11000 13746 13750 28
11001 13751 13752 28
11002 13751 13753 28
11003 13751 13754 28
11004 13751 13755 28
11005 13756 13757 28
11006 13756 13758 28
11007 13756 13759 28
11008 13756 13760 28
11009 13761 13762 28
11010 13761 13763 28
11011 13761 13764 28
11012 13761 13765 28
11013 13766 13767 28
11014 13766 13768 28
11015 13766 13769 28
11016 13766 13770 28
11017 13771 13772 28
11018 13771 13773 28
11019 13771 13774 28
11020 13771 13775 28
11021 13776 13777 28
11022 13776 13778 28
11023 13776 13779 28
11024 13776 13780 28
11025 13781 13782 28
11026 13781 13783 28
11027 13781 13784 28
11028 13781 13785 28
11029 13786 13787 28
11030 13786 13788 28
11031 13786 13789 28
11032 13786 13790 28
11033 13791 13792 28
11034 13791 13793 28
11035 13791 13794 28
11036 13791 13795 28
11037 13796 13797 28
11038 13796 13798 28
11039 13796 13799 28
11040 13796 13800 28
11041 13801 13802 28
11042 13801 13803 28
11043 13801 13804 28
11044 13801 13805 28
11045 13806 13807 28
11046 13806 13808 28
11047 13806 13809 28
11048 13806 13810 28
11049 13811 13812 28
11050 13811 13813 28
11051 13811 13814 28
11052 13811 13815 28
11053 13816 13817 28
11054 13816 13818 28
11055 13816 13819 28
11056 13816 13820 28
11057 13821 13822 28
11058 13821 13823 28
11059 13821 13824 28
11060 13821 13825 28
11061 13826 13827 28
11062 13826 13828 28
11063 13826 13829 28
11064 13826 13830 28
11065 13831 13832 28
11066 13831 13833 28
11067 13831 13834 28
11068 13831 13835 28
11069 13836 13837 28
11070 13836 13838 28
11071 13836 13839 28
11072 13836 13840 28
11073 13841 13842 28
11074 13841 13843 28
11075 13841 13844 28
11076 13841 13845 28
11077 13846 13847 28
11078 13846 13848 28
11079 13846 13849 28
11080 13846 13850 28
11081 13851 13852 28
11082 13851 13853 28
11083 13851 13854 28
11084 13851 13855 28
11085 13856 13857 28
11086 13856 13858 28
11087 13856 13859 28
11088 13856 13860 28
11089 13861 13862 28
11090 13861 13863 28
11091 13861 13864 28
11092 13861 13865 28
11093 13866 13867 28
11094 13866 13868 28
11095 13866 13869 28
11096 13866 13870 28
11097 13871 13872 28
11098 13871 13873 28
11099 13871 13874 28
11100 13871 13875 28
11101 13876 13877 28
11102 13876 13878 28
11103 13876 13879 28
11104 13876 13880 28
11105 13881 13882 28
11106 13881 13883 28
11107 13881 13884 28
11108 13881 13885 28
11109 13886 13887 28
11110 13886 13888 28
11111 13886 13889 28
11112 13886 13890 28
11113 13891 13892 28
11114 13891 13893 28
11115 13891 13894 28
11116 13891 13895 28
11117 13896 13897 28
11118 13896 13898 28
11119 13896 13899 28
11120 13896 13900 28
11121 13901 13902 28
11122 13901 13903 28
11123 13901 13904 28
11124 13901 13905 28
11125 13906 13907 28
11126 13906 13908 28
11127 13906 13909 28
11128 13906 13910 28
11129 13911 13912 28
11130 13911 13913 28
11131 13911 13914 28
11132 13911 13915 28
11133 13916 13917 28
11134 13916 13918 28
11135 13916 13919 28
11136 13916 13920 28
11137 13921 13922 28
11138 13921 13923 28
11139 13921 13924 28
11140 13921 13925 28
11141 13926 13927 28
11142 13926 13928 28
11143 13926 13929 28
11144 13926 13930 28
11145 13931 13932 28
11146 13931 13933 28
11147 13931 13934 28
11148 13931 13935 28
11149 13936 13937 28
11150 13936 13938 28
11151 13936 13939 28
11152 13936 13940 28
11153 13941 13942 28
11154 13941 13943 28
11155 13941 13944 28
11156 13941 13945 28
11157 13946 13947 28
11158 13946 13948 28
11159 13946 13949 28
11160 13946 13950 28
11161 13951 13952 28
11162 13951 13953 28
11163 13951 13954 28
11164 13951 13955 28
11165 13956 13957 28
11166 13956 13958 28
11167 13956 13959 28
11168 13956 13960 28
11169 13961 13962 28
11170 13961 13963 28
11171 13961 13964 28
11172 13961 13965 28
11173 13966 13967 28
11174 13966 13968 28
11175 13966 13969 28
11176 13966 13970 28
11177 13971 13972 28
11178 13971 13973 28
11179 13971 13974 28
11180 13971 13975 28
11181 13976 13977 28
11182 13976 13978 28
11183 13976 13979 28
11184 13976 13980 28
11185 13981 13982 28
11186 13981 13983 28
11187 13981 13984 28
11188 13981 13985 28
11189 13986 13987 28
11190 13986 13988 28
11191 13986 13989 28
11192 13986 13990 28
11193 13991 13992 28
11194 13991 13993 28
11195 13991 13994 28
11196 13991 13995 28
11197 13996 13997 28
11198 13996 13998 28
11199 13996 13999 28
11200 13996 14000 28
11201 14001 14002 28
11202 14001 14003 28
11203 14001 14004 28
11204 14001 14005 28
11205 14006 14007 28
11206 14006 14008 28
11207 14006 14009 28
11208 14006 14010 28
11209 14011 14012 28
11210 14011 14013 28
11211 14011 14014 28
11212 14011 14015 28
11213 14016 14017 28
11214 14016 14018 28
11215 14016 14019 28
11216 14016 14020 28
11217 14021 14022 28
11218 14021 14023 28
11219 14021 14024 28
11220 14021 14025 28
11221 14026 14027 28
11222 14026 14028 28
11223 14026 14029 28
11224 14026 14030 28
11225 14031 14032 28
11226 14031 14033 28
11227 14031 14034 28
11228 14031 14035 28
11229 14036 14037 28
11230 14036 14038 28
11231 14036 14039 28
11232 14036 14040 28
11233 14041 14042 28
11234 14041 14043 28
11235 14041 14044 28
11236 14041 14045 28
11237 14046 14047 28
11238 14046 14048 28
11239 14046 14049 28
11240 14046 14050 28
11241 14051 14052 28
11242 14051 14053 28
11243 14051 14054 28
11244 14051 14055 28
11245 14056 14057 28
11246 14056 14058 28
11247 14056 14059 28
11248 14056 14060 28
11249 14061 14062 28
11250 14061 14063 28
11251 14061 14064 28
11252 14061 14065 28
11253 14066 14067 28
11254 14066 14068 28
11255 14066 14069 28
11256 14066 14070 28
11257 14071 14072 28
11258 14071 14073 28
11259 14071 14074 28
11260 14071 14075 28
11261 14076 14077 28
11262 14076 14078 28
11263 14076 14079 28
11264 14076 14080 28
11265 14081 14082 28
11266 14081 14083 28
11267 14081 14084 28
11268 14081 14085 28
11269 14086 14087 28
11270 14086 14088 28
11271 14086 14089 28
11272 14086 14090 28
11273 14091 14092 28
11274 14091 14093 28
11275 14091 14094 28
11276 14091 14095 28
11277 14096 14097 28
11278 14096 14098 28
11279 14096 14099 28
11280 14096 14100 28
11281 14101 14102 28
11282 14101 14103 28
11283 14101 14104 28
11284 14101 14105 28
11285 14106 14107 28
11286 14106 14108 28
11287 14106 14109 28
11288 14106 14110 28
11289 14111 14112 28
11290 14111 14113 28
11291 14111 14114 28
11292 14111 14115 28
11293 14116 14117 28
11294 14116 14118 28
11295 14116 14119 28
11296 14116 14120 28
11297 14121 14122 28
11298 14121 14123 28
11299 14121 14124 28
11300 14121 14125 28
11301 14126 14127 28
11302 14126 14128 28
11303 14126 14129 28
11304 14126 14130 28
11305 14131 14132 28
11306 14131 14133 28
11307 14131 14134 28
11308 14131 14135 28
11309 14136 14137 28
11310 14136 14138 28
11311 14136 14139 28
11312 14136 14140 28
11313 14141 14142 28
11314 14141 14143 28
11315 14141 14144 28
11316 14141 14145 28
11317 14146 14147 28
11318 14146 14148 28
11319 14146 14149 28
11320 14146 14150 28
11321 14151 14152 28
11322 14151 14153 28
11323 14151 14154 28
11324 14151 14155 28
11325 14156 14157 28
11326 14156 14158 28
11327 14156 14159 28
11328 14156 14160 28
11329 14161 14162 28
11330 14161 14163 28
11331 14161 14164 28
11332 14161 14165 28
11333 14166 14167 28
11334 14166 14168 28
11335 14166 14169 28
11336 14166 14170 28
11337 14171 14172 28
11338 14171 14173 28
11339 14171 14174 28
11340 14171 14175 28
11341 14176 14177 28
11342 14176 14178 28
11343 14176 14179 28
11344 14176 14180 28
11345 14181 14182 28
11346 14181 14183 28
11347 14181 14184 28
11348 14181 14185 28
11349 14186 14187 28
11350 14186 14188 28
11351 14186 14189 28
11352 14186 14190 28
11353 14191 14192 28
11354 14191 14193 28
11355 14191 14194 28
11356 14191 14195 28
11357 14196 14197 28
11358 14196 14198 28
11359 14196 14199 28
11360 14196 14200 28
11361 14201 14202 28
11362 14201 14203 28
11363 14201 14204 28
11364 14201 14205 28
11365 14206 14207 28
11366 14206 14208 28
11367 14206 14209 28
11368 14206 14210 28
11369 14211 14212 28
11370 14211 14213 28
11371 14211 14214 28
11372 14211 14215 28
11373 14216 14217 28
11374 14216 14218 28
11375 14216 14219 28
11376 14216 14220 28
11377 14221 14222 28
11378 14221 14223 28
11379 14221 14224 28
11380 14221 14225 28
11381 14226 14227 28
11382 14226 14228 28
11383 14226 14229 28
11384 14226 14230 28
11385 14231 14232 28
11386 14231 14233 28
11387 14231 14234 28
11388 14231 14235 28
11389 14236 14237 28
11390 14236 14238 28
11391 14236 14239 28
11392 14236 14240 28
11393 14241 14242 28
11394 14241 14243 28
11395 14241 14244 28
11396 14241 14245 28
11397 14246 14247 28
11398 14246 14248 28
11399 14246 14249 28
11400 14246 14250 28
11401 14251 14252 28
11402 14251 14253 28
11403 14251 14254 28
11404 14251 14255 28
11405 14256 14257 28
11406 14256 14258 28
11407 14256 14259 28
11408 14256 14260 28
11409 14261 14262 28
11410 14261 14263 28
11411 14261 14264 28
11412 14261 14265 28
11413 14266 14267 28
11414 14266 14268 28
11415 14266 14269 28
11416 14266 14270 28
11417 14271 14272 28
11418 14271 14273 28
11419 14271 14274 28
11420 14271 14275 28
11421 14276 14277 28
11422 14276 14278 28
11423 14276 14279 28
11424 14276 14280 28
11425 14281 14282 28
11426 14281 14283 28
11427 14281 14284 28
11428 14281 14285 28
11429 14286 14287 28
11430 14286 14288 28
11431 14286 14289 28
11432 14286 14290 28
11433 14291 14292 28
11434 14291 14293 28
11435 14291 14294 28
11436 14291 14295 28
11437 14296 14297 28
11438 14296 14298 28
11439 14296 14299 28
11440 14296 14300 28
11441 14301 14302 28
11442 14301 14303 28
11443 14301 14304 28
11444 14301 14305 28
11445 14306 14307 28
11446 14306 14308 28
11447 14306 14309 28
11448 14306 14310 28
11449 14311 14312 28
11450 14311 14313 28
11451 14311 14314 28
11452 14311 14315 28
11453 14316 14317 28
11454 14316 14318 28
11455 14316 14319 28
11456 14316 14320 28
11457 14321 14322 28
11458 14321 14323 28
11459 14321 14324 28
11460 14321 14325 28
11461 14326 14327 28
11462 14326 14328 28
11463 14326 14329 28
11464 14326 14330 28
11465 14331 14332 28
11466 14331 14333 28
11467 14331 14334 28
11468 14331 14335 28
11469 14336 14337 28
11470 14336 14338 28
11471 14336 14339 28
11472 14336 14340 28
11473 14341 14342 28
11474 14341 14343 28
11475 14341 14344 28
11476 14341 14345 28
11477 14346 14347 28
11478 14346 14348 28
11479 14346 14349 28
11480 14346 14350 28
11481 14351 14352 28
11482 14351 14353 28
11483 14351 14354 28
11484 14351 14355 28
11485 14356 14357 28
11486 14356 14358 28
11487 14356 14359 28
11488 14356 14360 28
11489 14361 14362 28
11490 14361 14363 28
11491 14361 14364 28
11492 14361 14365 28
11493 14366 14367 28
11494 14366 14368 28
11495 14366 14369 28
11496 14366 14370 28
11497 14371 14372 28
11498 14371 14373 28
11499 14371 14374 28
11500 14371 14375 28
11501 14376 14377 28
11502 14376 14378 28
11503 14376 14379 28
11504 14376 14380 28
11505 14381 14382 28
11506 14381 14383 28
11507 14381 14384 28
11508 14381 14385 28
11509 14386 14387 28
11510 14386 14388 28
11511 14386 14389 28
11512 14386 14390 28
11513 14391 14392 28
11514 14391 14393 28
11515 14391 14394 28
11516 14391 14395 28
11517 14396 14397 28
11518 14396 14398 28
11519 14396 14399 28
11520 14396 14400 28
11521 14401 14402 28
11522 14401 14403 28
11523 14401 14404 28
11524 14401 14405 28
11525 14406 14407 28
11526 14406 14408 28
11527 14406 14409 28
11528 14406 14410 28
11529 14411 14412 28
11530 14411 14413 28
11531 14411 14414 28
11532 14411 14415 28
11533 14416 14417 28
11534 14416 14418 28
11535 14416 14419 28
11536 14416 14420 28
11537 14421 14422 28
11538 14421 14423 28
11539 14421 14424 28
11540 14421 14425 28
11541 14426 14427 28
11542 14426 14428 28
11543 14426 14429 28
11544 14426 14430 28
11545 14431 14432 28
11546 14431 14433 28
11547 14431 14434 28
11548 14431 14435 28
11549 14436 14437 28
11550 14436 14438 28
11551 14436 14439 28
11552 14436 14440 28
11553 14441 14442 28
11554 14441 14443 28
11555 14441 14444 28
11556 14441 14445 28
11557 14446 14447 28
11558 14446 14448 28
11559 14446 14449 28
11560 14446 14450 28
11561 14451 14452 28
11562 14451 14453 28
11563 14451 14454 28
11564 14451 14455 28
11565 14456 14457 28
11566 14456 14458 28
11567 14456 14459 28
11568 14456 14460 28
11569 14461 14462 28
11570 14461 14463 28
11571 14461 14464 28
11572 14461 14465 28
11573 14466 14467 28
11574 14466 14468 28
11575 14466 14469 28
11576 14466 14470 28
11577 14471 14472 28
11578 14471 14473 28
11579 14471 14474 28
11580 14471 14475 28
11581 14476 14477 28
11582 14476 14478 28
11583 14476 14479 28
11584 14476 14480 28
11585 14481 14482 28
11586 14481 14483 28
11587 14481 14484 28
11588 14481 14485 28
11589 14486 14487 28
11590 14486 14488 28
11591 14486 14489 28
11592 14486 14490 28
11593 14491 14492 28
11594 14491 14493 28
11595 14491 14494 28
11596 14491 14495 28
11597 14496 14497 28
11598 14496 14498 28
11599 14496 14499 28
11600 14496 14500 28
11601 14501 14502 28
11602 14501 14503 28
11603 14501 14504 28
11604 14501 14505 28
11605 14506 14507 28
11606 14506 14508 28
11607 14506 14509 28
11608 14506 14510 28
11609 14511 14512 28
11610 14511 14513 28
11611 14511 14514 28
11612 14511 14515 28
11613 14516 14517 28
11614 14516 14518 28
11615 14516 14519 28
11616 14516 14520 28
11617 14521 14522 28
11618 14521 14523 28
11619 14521 14524 28
11620 14521 14525 28
11621 14526 14527 28
11622 14526 14528 28
11623 14526 14529 28
11624 14526 14530 28
11625 14531 14532 28
11626 14531 14533 28
11627 14531 14534 28
11628 14531 14535 28
11629 14536 14537 28
11630 14536 14538 28
11631 14536 14539 28
11632 14536 14540 28
11633 14541 14542 28
11634 14541 14543 28
11635 14541 14544 28
11636 14541 14545 28
11637 14546 14547 28
11638 14546 14548 28
11639 14546 14549 28
11640 14546 14550 28
11641 14551 14552 28
11642 14551 14553 28
11643 14551 14554 28
11644 14551 14555 28
11645 14556 14557 28
11646 14556 14558 28
11647 14556 14559 28
11648 14556 14560 28
11649 14561 14562 28
11650 14561 14563 28
11651 14561 14564 28
11652 14561 14565 28
11653 14566 14567 28
11654 14566 14568 28
11655 14566 14569 28
11656 14566 14570 28
11657 14571 14572 28
11658 14571 14573 28
11659 14571 14574 28
11660 14571 14575 28
11661 14576 14577 28
11662 14576 14578 28
11663 14576 14579 28
11664 14576 14580 28
11665 14581 14582 28
11666 14581 14583 28
11667 14581 14584 28
11668 14581 14585 28
11669 14586 14587 28
11670 14586 14588 28
11671 14586 14589 28
11672 14586 14590 28
11673 14591 14592 28
11674 14591 14593 28
11675 14591 14594 28
11676 14591 14595 28
11677 14596 14597 28
11678 14596 14598 28
11679 14596 14599 28
11680 14596 14600 28
11681 14601 14602 28
11682 14601 14603 28
11683 14601 14604 28
11684 14601 14605 28
11685 14606 14607 28
11686 14606 14608 28
11687 14606 14609 28
11688 14606 14610 28
11689 14611 14612 28
11690 14611 14613 28
11691 14611 14614 28
11692 14611 14615 28
11693 14616 14617 28
11694 14616 14618 28
11695 14616 14619 28
11696 14616 14620 28
11697 14621 14622 28
11698 14621 14623 28
11699 14621 14624 28
11700 14621 14625 28
11701 14626 14627 28
11702 14626 14628 28
11703 14626 14629 28
11704 14626 14630 28
11705 14631 14632 28
11706 14631 14633 28
11707 14631 14634 28
11708 14631 14635 28
11709 14636 14637 28
11710 14636 14638 28
11711 14636 14639 28
11712 14636 14640 28
11713 14641 14642 28
11714 14641 14643 28
11715 14641 14644 28
11716 14641 14645 28
11717 14646 14647 28
11718 14646 14648 28
11719 14646 14649 28
11720 14646 14650 28
11721 14651 14652 28
11722 14651 14653 28
11723 14651 14654 28
11724 14651 14655 28
11725 14656 14657 28
11726 14656 14658 28
11727 14656 14659 28
11728 14656 14660 28
11729 14661 14662 28
11730 14661 14663 28
11731 14661 14664 28
11732 14661 14665 28
11733 14666 14667 28
11734 14666 14668 28
11735 14666 14669 28
11736 14666 14670 28
11737 14671 14672 28
11738 14671 14673 28
11739 14671 14674 28
11740 14671 14675 28
11741 14676 14677 28
11742 14676 14678 28
11743 14676 14679 28
11744 14676 14680 28
11745 14681 14682 28
11746 14681 14683 28
11747 14681 14684 28
11748 14681 14685 28
11749 14686 14687 28
11750 14686 14688 28
11751 14686 14689 28
11752 14686 14690 28
11753 14691 14692 28
11754 14691 14693 28
11755 14691 14694 28
11756 14691 14695 28
11757 14696 14697 28
11758 14696 14698 28
11759 14696 14699 28
11760 14696 14700 28
11761 14701 14702 28
11762 14701 14703 28
11763 14701 14704 28
11764 14701 14705 28
11765 14706 14707 28
11766 14706 14708 28
11767 14706 14709 28
11768 14706 14710 28
11769 14711 14712 28
11770 14711 14713 28
11771 14711 14714 28
11772 14711 14715 28
11773 14716 14717 28
11774 14716 14718 28
11775 14716 14719 28
11776 14716 14720 28
11777 14721 14722 28
11778 14721 14723 28
11779 14721 14724 28
11780 14721 14725 28
11781 14726 14727 28
11782 14726 14728 28
11783 14726 14729 28
11784 14726 14730 28
11785 14731 14732 28
11786 14731 14733 28
11787 14731 14734 28
11788 14731 14735 28
11789 14736 14737 28
11790 14736 14738 28
11791 14736 14739 28
11792 14736 14740 28
11793 14741 14742 28
11794 14741 14743 28
11795 14741 14744 28
11796 14741 14745 28
11797 14746 14747 28
11798 14746 14748 28
11799 14746 14749 28
11800 14746 14750 28
11801 14751 14752 28
11802 14751 14753 28
11803 14751 14754 28
11804 14751 14755 28
11805 14756 14757 28
11806 14756 14758 28
11807 14756 14759 28
11808 14756 14760 28
11809 14761 14762 28
11810 14761 14763 28
11811 14761 14764 28
11812 14761 14765 28
11813 14766 14767 28
11814 14766 14768 28
11815 14766 14769 28
11816 14766 14770 28
11817 14771 14772 28
11818 14771 14773 28
11819 14771 14774 28
11820 14771 14775 28
11821 14776 14777 28
11822 14776 14778 28
11823 14776 14779 28
11824 14776 14780 28
11825 14781 14782 28
11826 14781 14783 28
11827 14781 14784 28
11828 14781 14785 28
11829 14786 14787 28
11830 14786 14788 28
11831 14786 14789 28
11832 14786 14790 28
11833 14791 14792 28
11834 14791 14793 28
11835 14791 14794 28
11836 14791 14795 28
11837 14796 14797 28
11838 14796 14798 28
11839 14796 14799 28
11840 14796 14800 28
11841 14801 14802 28
11842 14801 14803 28
11843 14801 14804 28
11844 14801 14805 28
11845 14806 14807 28
11846 14806 14808 28
11847 14806 14809 28
11848 14806 14810 28
11849 14811 14812 28
11850 14811 14813 28
11851 14811 14814 28
11852 14811 14815 28
11853 14816 14817 28
11854 14816 14818 28
11855 14816 14819 28
11856 14816 14820 28
11857 14821 14822 28
11858 14821 14823 28
11859 14821 14824 28
11860 14821 14825 28
11861 14826 14827 28
11862 14826 14828 28
11863 14826 14829 28
11864 14826 14830 28
11865 14831 14832 28
11866 14831 14833 28
11867 14831 14834 28
11868 14831 14835 28
11869 14836 14837 28
11870 14836 14838 28
11871 14836 14839 28
11872 14836 14840 28
11873 14841 14842 28
11874 14841 14843 28
11875 14841 14844 28
11876 14841 14845 28
11877 14846 14847 28
11878 14846 14848 28
11879 14846 14849 28
11880 14846 14850 28
11881 14851 14852 28
11882 14851 14853 28
11883 14851 14854 28
11884 14851 14855 28
11885 14856 14857 28
11886 14856 14858 28
11887 14856 14859 28
11888 14856 14860 28
11889 14861 14862 28
11890 14861 14863 28
11891 14861 14864 28
11892 14861 14865 28
11893 14866 14867 28
11894 14866 14868 28
11895 14866 14869 28
11896 14866 14870 28
11897 14871 14872 28
11898 14871 14873 28
11899 14871 14874 28
11900 14871 14875 28
11901 14876 14877 28
11902 14876 14878 28
11903 14876 14879 28
11904 14876 14880 28
11905 14881 14882 28
11906 14881 14883 28
11907 14881 14884 28
11908 14881 14885 28
11909 14886 14887 28
11910 14886 14888 28
11911 14886 14889 28
11912 14886 14890 28
11913 14891 14892 28
11914 14891 14893 28
11915 14891 14894 28
11916 14891 14895 28
11917 14896 14897 28
11918 14896 14898 28
11919 14896 14899 28
11920 14896 14900 28
11921 14901 14902 28
11922 14901 14903 28
11923 14901 14904 28
11924 14901 14905 28
11925 14906 14907 28
11926 14906 14908 28
11927 14906 14909 28
11928 14906 14910 28
11929 14911 14912 28
11930 14911 14913 28
11931 14911 14914 28
11932 14911 14915 28
11933 14916 14917 28
11934 14916 14918 28
11935 14916 14919 28
11936 14916 14920 28
11937 14921 14922 28
11938 14921 14923 28
11939 14921 14924 28
11940 14921 14925 28
11941 14926 14927 28
11942 14926 14928 28
11943 14926 14929 28
11944 14926 14930 28
11945 14931 14932 28
11946 14931 14933 28
11947 14931 14934 28
11948 14931 14935 28
11949 14936 14937 28
11950 14936 14938 28
11951 14936 14939 28
11952 14936 14940 28
11953 14941 14942 28
11954 14941 14943 28
11955 14941 14944 28
11956 14941 14945 28
11957 14946 14947 28
11958 14946 14948 28
11959 14946 14949 28
11960 14946 14950 28
11961 14951 14952 28
11962 14951 14953 28
11963 14951 14954 28
11964 14951 14955 28
11965 14956 14957 28
11966 14956 14958 28
11967 14956 14959 28
11968 14956 14960 28
11969 14961 14962 28
11970 14961 14963 28
11971 14961 14964 28
11972 14961 14965 28
11973 14966 14967 28
11974 14966 14968 28
11975 14966 14969 28
11976 14966 14970 28
11977 14971 14972 28
11978 14971 14973 28
11979 14971 14974 28
11980 14971 14975 28
11981 14976 14977 28
11982 14976 14978 28
11983 14976 14979 28
11984 14976 14980 28
11985 14981 14982 28
11986 14981 14983 28
11987 14981 14984 28
11988 14981 14985 28
11989 14986 14987 28
11990 14986 14988 28
11991 14986 14989 28
11992 14986 14990 28
11993 14991 14992 28
11994 14991 14993 28
11995 14991 14994 28
11996 14991 14995 28
11997 14996 14997 28
11998 14996 14998 28
11999 14996 14999 28
12000 14996 15000 28
12001 15001 15002 28
12002 15001 15003 28
12003 15001 15004 28
12004 15001 15005 28
12005 15006 15007 28
12006 15006 15008 28
12007 15006 15009 28
12008 15006 15010 28
12009 15011 15012 28
12010 15011 15013 28
12011 15011 15014 28
12012 15011 15015 28
12013 15016 15017 28
12014 15016 15018 28
12015 15016 15019 28
12016 15016 15020 28
12017 15021 15022 28
12018 15021 15023 28
12019 15021 15024 28
12020 15021 15025 28
12021 15026 15027 28
12022 15026 15028 28
12023 15026 15029 28
12024 15026 15030 28
12025 15031 15032 28
12026 15031 15033 28
12027 15031 15034 28
12028 15031 15035 28
12029 15036 15037 28
12030 15036 15038 28
12031 15036 15039 28
12032 15036 15040 28
12033 15041 15042 28
12034 15041 15043 28
12035 15041 15044 28
12036 15041 15045 28
12037 15046 15047 28
12038 15046 15048 28
12039 15046 15049 28
12040 15046 15050 28
12041 15051 15052 28
12042 15051 15053 28
12043 15051 15054 28
12044 15051 15055 28
12045 15056 15057 28
12046 15056 15058 28
12047 15056 15059 28
12048 15056 15060 28
12049 15061 15062 28
12050 15061 15063 28
12051 15061 15064 28
12052 15061 15065 28
12053 15066 15067 28
12054 15066 15068 28
12055 15066 15069 28
12056 15066 15070 28
12057 15071 15072 28
12058 15071 15073 28
12059 15071 15074 28
12060 15071 15075 28
12061 15076 15077 28
12062 15076 15078 28
12063 15076 15079 28
12064 15076 15080 28
12065 15081 15082 28
12066 15081 15083 28
12067 15081 15084 28
12068 15081 15085 28
12069 15086 15087 28
12070 15086 15088 28
12071 15086 15089 28
12072 15086 15090 28
12073 15091 15092 28
12074 15091 15093 28
12075 15091 15094 28
12076 15091 15095 28
12077 15096 15097 28
12078 15096 15098 28
12079 15096 15099 28
12080 15096 15100 28
12081 15101 15102 28
12082 15101 15103 28
12083 15101 15104 28
12084 15101 15105 28
12085 15106 15107 28
12086 15106 15108 28
12087 15106 15109 28
12088 15106 15110 28
12089 15111 15112 28
12090 15111 15113 28
12091 15111 15114 28
12092 15111 15115 28
12093 15116 15117 28
12094 15116 15118 28
12095 15116 15119 28
12096 15116 15120 28
12097 15121 15122 28
12098 15121 15123 28
12099 15121 15124 28
12100 15121 15125 28
12101 15126 15127 28
12102 15126 15128 28
12103 15126 15129 28
12104 15126 15130 28
12105 15131 15132 28
12106 15131 15133 28
12107 15131 15134 28
12108 15131 15135 28
12109 15136 15137 28
12110 15136 15138 28
12111 15136 15139 28
12112 15136 15140 28
12113 15141 15142 28
12114 15141 15143 28
12115 15141 15144 28
12116 15141 15145 28
12117 15146 15147 28
12118 15146 15148 28
12119 15146 15149 28
12120 15146 15150 28
12121 15151 15152 28
12122 15151 15153 28
12123 15151 15154 28
12124 15151 15155 28
12125 15156 15157 28
12126 15156 15158 28
12127 15156 15159 28
12128 15156 15160 28
12129 15161 15162 28
12130 15161 15163 28
12131 15161 15164 28
12132 15161 15165 28
12133 15166 15167 28
12134 15166 15168 28
12135 15166 15169 28
12136 15166 15170 28
12137 15171 15172 28
12138 15171 15173 28
12139 15171 15174 28
12140 15171 15175 28
12141 15176 15177 28
12142 15176 15178 28
12143 15176 15179 28
12144 15176 15180 28
12145 15181 15182 28
12146 15181 15183 28
12147 15181 15184 28
12148 15181 15185 28
12149 15186 15187 28
12150 15186 15188 28
12151 15186 15189 28
12152 15186 15190 28
12153 15191 15192 28
12154 15191 15193 28
12155 15191 15194 28
12156 15191 15195 28
12157 15196 15197 28
12158 15196 15198 28
12159 15196 15199 28
12160 15196 15200 28
12161 15201 15202 28
12162 15201 15203 28
12163 15201 15204 28
12164 15201 15205 28
12165 15206 15207 28
12166 15206 15208 28
12167 15206 15209 28
12168 15206 15210 28
12169 15211 15212 28
12170 15211 15213 28
12171 15211 15214 28
12172 15211 15215 28
12173 15216 15217 28
12174 15216 15218 28
12175 15216 15219 28
12176 15216 15220 28
12177 15221 15222 28
12178 15221 15223 28
12179 15221 15224 28
12180 15221 15225 28
12181 15226 15227 28
12182 15226 15228 28
12183 15226 15229 28
12184 15226 15230 28
12185 15231 15232 28
12186 15231 15233 28
12187 15231 15234 28
12188 15231 15235 28
12189 15236 15237 28
12190 15236 15238 28
12191 15236 15239 28
12192 15236 15240 28
12193 15241 15242 28
12194 15241 15243 28
12195 15241 15244 28
12196 15241 15245 28
12197 15246 15247 28
12198 15246 15248 28
12199 15246 15249 28
12200 15246 15250 28
12201 15251 15252 28
12202 15251 15253 28
12203 15251 15254 28
12204 15251 15255 28
12205 15256 15257 28
12206 15256 15258 28
12207 15256 15259 28
12208 15256 15260 28
12209 15261 15262 28
12210 15261 15263 28
12211 15261 15264 28
12212 15261 15265 28
12213 15266 15267 28
12214 15266 15268 28
12215 15266 15269 28
12216 15266 15270 28
12217 15271 15272 28
12218 15271 15273 28
12219 15271 15274 28
12220 15271 15275 28
12221 15276 15277 28
12222 15276 15278 28
12223 15276 15279 28
12224 15276 15280 28
12225 15281 15282 28
12226 15281 15283 28
12227 15281 15284 28
12228 15281 15285 28
12229 15286 15287 28
12230 15286 15288 28
12231 15286 15289 28
12232 15286 15290 28
12233 15291 15292 28
12234 15291 15293 28
12235 15291 15294 28
12236 15291 15295 28
12237 15296 15297 28
12238 15296 15298 28
12239 15296 15299 28
12240 15296 15300 28
12241 15301 15302 28
12242 15301 15303 28
12243 15301 15304 28
12244 15301 15305 28
12245 15306 15307 28
12246 15306 15308 28
12247 15306 15309 28
12248 15306 15310 28
12249 15311 15312 28
12250 15311 15313 28
12251 15311 15314 28
12252 15311 15315 28
12253 15316 15317 28
12254 15316 15318 28
12255 15316 15319 28
12256 15316 15320 28
12257 15321 15322 28
12258 15321 15323 28
12259 15321 15324 28
12260 15321 15325 28
12261 15326 15327 28
12262 15326 15328 28
12263 15326 15329 28
12264 15326 15330 28
12265 15331 15332 28
12266 15331 15333 28
12267 15331 15334 28
12268 15331 15335 28
12269 15336 15337 28
12270 15336 15338 28
12271 15336 15339 28
12272 15336 15340 28
12273 15341 15342 28
12274 15341 15343 28
12275 15341 15344 28
12276 15341 15345 28
12277 15346 15347 28
12278 15346 15348 28
12279 15346 15349 28
12280 15346 15350 28
12281 15351 15352 28
12282 15351 15353 28
12283 15351 15354 28
12284 15351 15355 28
12285 15356 15357 28
12286 15356 15358 28
12287 15356 15359 28
12288 15356 15360 28
12289 15361 15362 28
12290 15361 15363 28
12291 15361 15364 28
12292 15361 15365 28
12293 15366 15367 28
12294 15366 15368 28
12295 15366 15369 28
12296 15366 15370 28
12297 15371 15372 28
12298 15371 15373 28
12299 15371 15374 28
12300 15371 15375 28
12301 15376 15377 28
12302 15376 15378 28
12303 15376 15379 28
12304 15376 15380 28
12305 15381 15382 28
12306 15381 15383 28
12307 15381 15384 28
12308 15381 15385 28
12309 15386 15387 28
12310 15386 15388 28
12311 15386 15389 28
12312 15386 15390 28
12313 15391 15392 28
12314 15391 15393 28
12315 15391 15394 28
12316 15391 15395 28
12317 15396 15397 28
12318 15396 15398 28
12319 15396 15399 28
12320 15396 15400 28
12321 15401 15402 28
12322 15401 15403 28
12323 15401 15404 28
12324 15401 15405 28
12325 15406 15407 28
12326 15406 15408 28
12327 15406 15409 28
12328 15406 15410 28
12329 15411 15412 28
12330 15411 15413 28
12331 15411 15414 28
12332 15411 15415 28
12333 15416 15417 28
12334 15416 15418 28
12335 15416 15419 28
12336 15416 15420 28
12337 15421 15422 28
12338 15421 15423 28
12339 15421 15424 28
12340 15421 15425 28
12341 15426 15427 28
12342 15426 15428 28
12343 15426 15429 28
12344 15426 15430 28
12345 15431 15432 28
12346 15431 15433 28
12347 15431 15434 28
12348 15431 15435 28
12349 15436 15437 28
12350 15436 15438 28
12351 15436 15439 28
12352 15436 15440 28
12353 15441 15442 28
12354 15441 15443 28
12355 15441 15444 28
12356 15441 15445 28
12357 15446 15447 28
12358 15446 15448 28
12359 15446 15449 28
12360 15446 15450 28
12361 15451 15452 28
12362 15451 15453 28
12363 15451 15454 28
12364 15451 15455 28
12365 15456 15457 28
12366 15456 15458 28
12367 15456 15459 28
12368 15456 15460 28
12369 15461 15462 28
12370 15461 15463 28
12371 15461 15464 28
12372 15461 15465 28
12373 15466 15467 28
12374 15466 15468 28
12375 15466 15469 28
12376 15466 15470 28
12377 15471 15472 28
12378 15471 15473 28
12379 15471 15474 28
12380 15471 15475 28
12381 15476 15477 28
12382 15476 15478 28
12383 15476 15479 28
12384 15476 15480 28
12385 15481 15482 28
12386 15481 15483 28
12387 15481 15484 28
12388 15481 15485 28
12389 15486 15487 28
12390 15486 15488 28
12391 15486 15489 28
12392 15486 15490 28
12393 15491 15492 28
12394 15491 15493 28
12395 15491 15494 28
12396 15491 15495 28
12397 15496 15497 28
12398 15496 15498 28
12399 15496 15499 28
12400 15496 15500 28
12401 15501 15502 28
12402 15501 15503 28
12403 15501 15504 28
12404 15501 15505 28
12405 15506 15507 28
12406 15506 15508 28
12407 15506 15509 28
12408 15506 15510 28
12409 15511 15512 28
12410 15511 15513 28
12411 15511 15514 28
12412 15511 15515 28
12413 15516 15517 28
12414 15516 15518 28
12415 15516 15519 28
12416 15516 15520 28
12417 15521 15522 28
12418 15521 15523 28
12419 15521 15524 28
12420 15521 15525 28
12421 15526 15527 28
12422 15526 15528 28
12423 15526 15529 28
12424 15526 15530 28
12425 15531 15532 28
12426 15531 15533 28
12427 15531 15534 28
12428 15531 15535 28
12429 15536 15537 28
12430 15536 15538 28
12431 15536 15539 28
12432 15536 15540 28
12433 15541 15542 28
12434 15541 15543 28
12435 15541 15544 28
12436 15541 15545 28
12437 15546 15547 28
12438 15546 15548 28
12439 15546 15549 28
12440 15546 15550 28
12441 15551 15552 28
12442 15551 15553 28
12443 15551 15554 28
12444 15551 15555 28
12445 15556 15557 28
12446 15556 15558 28
12447 15556 15559 28
12448 15556 15560 28
12449 15561 15562 28
12450 15561 15563 28
12451 15561 15564 28
12452 15561 15565 28
12453 15566 15567 28
12454 15566 15568 28
12455 15566 15569 28
12456 15566 15570 28
12457 15571 15572 28
12458 15571 15573 28
12459 15571 15574 28
12460 15571 15575 28
12461 15576 15577 28
12462 15576 15578 28
12463 15576 15579 28
12464 15576 15580 28
12465 15581 15582 28
12466 15581 15583 28
12467 15581 15584 28
12468 15581 15585 28
12469 15586 15587 28
12470 15586 15588 28
12471 15586 15589 28
12472 15586 15590 28
12473 15591 15592 28
12474 15591 15593 28
12475 15591 15594 28
12476 15591 15595 28
12477 15596 15597 28
12478 15596 15598 28
12479 15596 15599 28
12480 15596 15600 28
12481 15601 15602 28
12482 15601 15603 28
12483 15601 15604 28
12484 15601 15605 28
12485 15606 15607 28
12486 15606 15608 28
12487 15606 15609 28
12488 15606 15610 28
12489 15611 15612 28
12490 15611 15613 28
12491 15611 15614 28
12492 15611 15615 28
12493 15616 15617 28
12494 15616 15618 28
12495 15616 15619 28
12496 15616 15620 28
12497 15621 15622 28
12498 15621 15623 28
12499 15621 15624 28
12500 15621 15625 28
12501 15626 15627 28
12502 15626 15628 28
12503 15626 15629 28
12504 15626 15630 28
12505 15631 15632 28
12506 15631 15633 28
12507 15631 15634 28
12508 15631 15635 28
12509 15636 15637 28
12510 15636 15638 28
12511 15636 15639 28
12512 15636 15640 28
12513 15641 15642 28
12514 15641 15643 28
12515 15641 15644 28
12516 15641 15645 28
12517 15646 15647 28
12518 15646 15648 28
12519 15646 15649 28
12520 15646 15650 28
12521 15651 15652 28
12522 15651 15653 28
12523 15651 15654 28
12524 15651 15655 28
12525 15656 15657 28
12526 15656 15658 28
12527 15656 15659 28
12528 15656 15660 28
12529 15661 15662 28
12530 15661 15663 28
12531 15661 15664 28
12532 15661 15665 28
12533 15666 15667 28
12534 15666 15668 28
12535 15666 15669 28
12536 15666 15670 28
12537 15671 15672 28
12538 15671 15673 28
12539 15671 15674 28
12540 15671 15675 28
12541 15676 15677 28
12542 15676 15678 28
12543 15676 15679 28
12544 15676 15680 28
12545 15681 15682 28
12546 15681 15683 28
12547 15681 15684 28
12548 15681 15685 28
12549 15686 15687 28
12550 15686 15688 28
12551 15686 15689 28
12552 15686 15690 28
12553 15691 15692 28
12554 15691 15693 28
12555 15691 15694 28
12556 15691 15695 28
12557 15696 15697 28
12558 15696 15698 28
12559 15696 15699 28
12560 15696 15700 28
12561 15701 15702 28
12562 15701 15703 28
12563 15701 15704 28
12564 15701 15705 28
12565 15706 15707 28
12566 15706 15708 28
12567 15706 15709 28
12568 15706 15710 28
12569 15711 15712 28
12570 15711 15713 28
12571 15711 15714 28
12572 15711 15715 28
12573 15716 15717 28
12574 15716 15718 28
12575 15716 15719 28
12576 15716 15720 28
12577 15721 15722 28
12578 15721 15723 28
12579 15721 15724 28
12580 15721 15725 28
12581 15726 15727 28
12582 15726 15728 28
12583 15726 15729 28
12584 15726 15730 28
12585 15731 15732 28
12586 15731 15733 28
12587 15731 15734 28
12588 15731 15735 28
12589 15736 15737 28
12590 15736 15738 28
12591 15736 15739 28
12592 15736 15740 28
12593 15741 15742 28
12594 15741 15743 28
12595 15741 15744 28
12596 15741 15745 28
12597 15746 15747 28
12598 15746 15748 28
12599 15746 15749 28
12600 15746 15750 28
12601 15751 15752 28
12602 15751 15753 28
12603 15751 15754 28
12604 15751 15755 28
12605 15756 15757 28
12606 15756 15758 28
12607 15756 15759 28
12608 15756 15760 28
12609 15761 15762 28
12610 15761 15763 28
12611 15761 15764 28
12612 15761 15765 28
12613 15766 15767 28
12614 15766 15768 28
12615 15766 15769 28
12616 15766 15770 28
12617 15771 15772 28
12618 15771 15773 28
12619 15771 15774 28
12620 15771 15775 28
12621 15776 15777 28
12622 15776 15778 28
12623 15776 15779 28
12624 15776 15780 28
12625 15781 15782 28
12626 15781 15783 28
12627 15781 15784 28
12628 15781 15785 28
12629 15786 15787 28
12630 15786 15788 28
12631 15786 15789 28
12632 15786 15790 28
12633 15791 15792 28
12634 15791 15793 28
12635 15791 15794 28
12636 15791 15795 28
12637 15796 15797 28
12638 15796 15798 28
12639 15796 15799 28
12640 15796 15800 28
12641 15801 15802 28
12642 15801 15803 28
12643 15801 15804 28
12644 15801 15805 28
12645 15806 15807 28
12646 15806 15808 28
12647 15806 15809 28
12648 15806 15810 28
12649 15811 15812 28
12650 15811 15813 28
12651 15811 15814 28
12652 15811 15815 28
12653 15816 15817 28
12654 15816 15818 28
12655 15816 15819 28
12656 15816 15820 28
12657 15821 15822 28
12658 15821 15823 28
12659 15821 15824 28
12660 15821 15825 28
12661 15826 15827 28
12662 15826 15828 28
12663 15826 15829 28
12664 15826 15830 28
12665 15831 15832 28
12666 15831 15833 28
12667 15831 15834 28
12668 15831 15835 28
12669 15836 15837 28
12670 15836 15838 28
12671 15836 15839 28
12672 15836 15840 28
12673 15841 15842 28
12674 15841 15843 28
12675 15841 15844 28
12676 15841 15845 28
12677 15846 15847 28
12678 15846 15848 28
12679 15846 15849 28
12680 15846 15850 28
12681 15851 15852 28
12682 15851 15853 28
12683 15851 15854 28
12684 15851 15855 28
12685 15856 15857 28
12686 15856 15858 28
12687 15856 15859 28
12688 15856 15860 28
12689 15861 15862 28
12690 15861 15863 28
12691 15861 15864 28
12692 15861 15865 28
12693 15866 15867 28
12694 15866 15868 28
12695 15866 15869 28
12696 15866 15870 28
12697 15871 15872 28
12698 15871 15873 28
12699 15871 15874 28
12700 15871 15875 28
12701 15876 15877 28
12702 15876 15878 28
12703 15876 15879 28
12704 15876 15880 28
12705 15881 15882 28
12706 15881 15883 28
12707 15881 15884 28
12708 15881 15885 28
12709 15886 15887 28
12710 15886 15888 28
12711 15886 15889 28
12712 15886 15890 28
12713 15891 15892 28
12714 15891 15893 28
12715 15891 15894 28
12716 15891 15895 28
12717 15896 15897 28
12718 15896 15898 28
12719 15896 15899 28
12720 15896 15900 28
12721 15901 15902 28
12722 15901 15903 28
12723 15901 15904 28
12724 15901 15905 28
12725 15906 15907 28
12726 15906 15908 28
12727 15906 15909 28
12728 15906 15910 28
12729 15911 15912 28
12730 15911 15913 28
12731 15911 15914 28
12732 15911 15915 28
12733 15916 15917 28
12734 15916 15918 28
12735 15916 15919 28
12736 15916 15920 28
12737 15921 15922 28
12738 15921 15923 28
12739 15921 15924 28
12740 15921 15925 28
12741 15926 15927 28
12742 15926 15928 28
12743 15926 15929 28
12744 15926 15930 28
12745 15931 15932 28
12746 15931 15933 28
12747 15931 15934 28
12748 15931 15935 28
12749 15936 15937 28
12750 15936 15938 28
12751 15936 15939 28
12752 15936 15940 28
12753 15941 15942 28
12754 15941 15943 28
12755 15941 15944 28
12756 15941 15945 28
12757 15946 15947 28
12758 15946 15948 28
12759 15946 15949 28
12760 15946 15950 28
12761 15951 15952 28
12762 15951 15953 28
12763 15951 15954 28
12764 15951 15955 28
12765 15956 15957 28
12766 15956 15958 28
12767 15956 15959 28
12768 15956 15960 28
12769 15961 15962 28
12770 15961 15963 28
12771 15961 15964 28
12772 15961 15965 28
12773 15966 15967 28
12774 15966 15968 28
12775 15966 15969 28
12776 15966 15970 28
12777 15971 15972 28
12778 15971 15973 28
12779 15971 15974 28
12780 15971 15975 28
12781 15976 15977 28
12782 15976 15978 28
12783 15976 15979 28
12784 15976 15980 28
12785 15981 15982 28
12786 15981 15983 28
12787 15981 15984 28
12788 15981 15985 28
12789 15986 15987 28
12790 15986 15988 28
12791 15986 15989 28
12792 15986 15990 28
12793 15991 15992 28
12794 15991 15993 28
12795 15991 15994 28
12796 15991 15995 28
12797 15996 15997 28
12798 15996 15998 28
12799 15996 15999 28
12800 15996 16000 28
12801 16001 16002 28
12802 16001 16003 28
12803 16001 16004 28
12804 16001 16005 28
12805 16006 16007 28
12806 16006 16008 28
12807 16006 16009 28
12808 16006 16010 28
12809 16011 16012 28
12810 16011 16013 28
12811 16011 16014 28
12812 16011 16015 28
12813 16016 16017 28
12814 16016 16018 28
12815 16016 16019 28
12816 16016 16020 28
12817 16021 16022 28
12818 16021 16023 28
12819 16021 16024 28
12820 16021 16025 28
12821 16026 16027 28
12822 16026 16028 28
12823 16026 16029 28
12824 16026 16030 28
12825 16031 16032 28
12826 16031 16033 28
12827 16031 16034 28
12828 16031 16035 28
12829 16036 16037 28
12830 16036 16038 28
12831 16036 16039 28
12832 16036 16040 28
12833 16041 16042 28
12834 16041 16043 28
12835 16041 16044 28
12836 16041 16045 28
12837 16046 16047 28
12838 16046 16048 28
12839 16046 16049 28
12840 16046 16050 28
12841 16051 16052 28
12842 16051 16053 28
12843 16051 16054 28
12844 16051 16055 28
12845 16056 16057 28
12846 16056 16058 28
12847 16056 16059 28
12848 16056 16060 28
12849 16061 16062 28
12850 16061 16063 28
12851 16061 16064 28
12852 16061 16065 28
12853 16066 16067 28
12854 16066 16068 28
12855 16066 16069 28
12856 16066 16070 28
12857 16071 16072 28
12858 16071 16073 28
12859 16071 16074 28
12860 16071 16075 28
12861 16076 16077 28
12862 16076 16078 28
12863 16076 16079 28
12864 16076 16080 28
12865 16081 16082 28
12866 16081 16083 28
12867 16081 16084 28
12868 16081 16085 28
12869 16086 16087 28
12870 16086 16088 28
12871 16086 16089 28
12872 16086 16090 28
12873 16091 16092 28
12874 16091 16093 28
12875 16091 16094 28
12876 16091 16095 28
12877 16096 16097 28
12878 16096 16098 28
12879 16096 16099 28
12880 16096 16100 28
12881 16101 16102 28
12882 16101 16103 28
12883 16101 16104 28
12884 16101 16105 28
12885 16106 16107 28
12886 16106 16108 28
12887 16106 16109 28
12888 16106 16110 28
12889 16111 16112 28
12890 16111 16113 28
12891 16111 16114 28
12892 16111 16115 28
12893 16116 16117 28
12894 16116 16118 28
12895 16116 16119 28
12896 16116 16120 28
12897 16121 16122 28
12898 16121 16123 28
12899 16121 16124 28
12900 16121 16125 28
12901 16126 16127 28
12902 16126 16128 28
12903 16126 16129 28
12904 16126 16130 28
12905 16131 16132 28
12906 16131 16133 28
12907 16131 16134 28
12908 16131 16135 28
12909 16136 16137 28
12910 16136 16138 28
12911 16136 16139 28
12912 16136 16140 28
12913 16141 16142 28
12914 16141 16143 28
12915 16141 16144 28
12916 16141 16145 28
12917 16146 16147 28
12918 16146 16148 28
12919 16146 16149 28
12920 16146 16150 28
12921 16151 16152 28
12922 16151 16153 28
12923 16151 16154 28
12924 16151 16155 28
12925 16156 16157 28
12926 16156 16158 28
12927 16156 16159 28
12928 16156 16160 28
12929 16161 16162 28
12930 16161 16163 28
12931 16161 16164 28
12932 16161 16165 28
12933 16166 16167 28
12934 16166 16168 28
12935 16166 16169 28
12936 16166 16170 28
12937 16171 16172 28
12938 16171 16173 28
12939 16171 16174 28
12940 16171 16175 28
12941 16176 16177 28
12942 16176 16178 28
12943 16176 16179 28
12944 16176 16180 28
12945 16181 16182 28
12946 16181 16183 28
12947 16181 16184 28
12948 16181 16185 28
12949 16186 16187 28
12950 16186 16188 28
12951 16186 16189 28
12952 16186 16190 28
12953 16191 16192 28
12954 16191 16193 28
12955 16191 16194 28
12956 16191 16195 28
12957 16196 16197 28
12958 16196 16198 28
12959 16196 16199 28
12960 16196 16200 28
12961 16201 16202 28
12962 16201 16203 28
12963 16201 16204 28
12964 16201 16205 28
12965 16206 16207 28
12966 16206 16208 28
12967 16206 16209 28
12968 16206 16210 28
12969 16211 16212 28
12970 16211 16213 28
12971 16211 16214 28
12972 16211 16215 28
12973 16216 16217 28
12974 16216 16218 28
12975 16216 16219 28
12976 16216 16220 28
12977 16221 16222 28
12978 16221 16223 28
12979 16221 16224 28
12980 16221 16225 28
12981 16226 16227 28
12982 16226 16228 28
12983 16226 16229 28
12984 16226 16230 28
12985 16231 16232 28
12986 16231 16233 28
12987 16231 16234 28
12988 16231 16235 28
12989 16236 16237 28
12990 16236 16238 28
12991 16236 16239 28
12992 16236 16240 28
12993 16241 16242 28
12994 16241 16243 28
12995 16241 16244 28
12996 16241 16245 28
12997 16246 16247 28
12998 16246 16248 28
12999 16246 16249 28
13000 16246 16250 28
13001 16251 16252 28
13002 16251 16253 28
13003 16251 16254 28
13004 16251 16255 28
13005 16256 16257 28
13006 16256 16258 28
13007 16256 16259 28
13008 16256 16260 28
13009 16261 16262 28
13010 16261 16263 28
13011 16261 16264 28
13012 16261 16265 28
13013 16266 16267 28
13014 16266 16268 28
13015 16266 16269 28
13016 16266 16270 28
13017 16271 16272 28
13018 16271 16273 28
13019 16271 16274 28
13020 16271 16275 28
13021 16276 16277 28
13022 16276 16278 28
13023 16276 16279 28
13024 16276 16280 28
13025 16281 16282 28
13026 16281 16283 28
13027 16281 16284 28
13028 16281 16285 28
13029 16286 16287 28
13030 16286 16288 28
13031 16286 16289 28
13032 16286 16290 28
13033 16291 16292 28
13034 16291 16293 28
13035 16291 16294 28
13036 16291 16295 28
13037 16296 16297 28
13038 16296 16298 28
13039 16296 16299 28
13040 16296 16300 28
13041 16301 16302 28
13042 16301 16303 28
13043 16301 16304 28
13044 16301 16305 28
13045 16306 16307 28
13046 16306 16308 28
13047 16306 16309 28
13048 16306 16310 28
13049 16311 16312 28
13050 16311 16313 28
13051 16311 16314 28
13052 16311 16315 28
13053 16316 16317 28
13054 16316 16318 28
13055 16316 16319 28
13056 16316 16320 28
13057 16321 16322 28
13058 16321 16323 28
13059 16321 16324 28
13060 16321 16325 28
13061 16326 16327 28
13062 16326 16328 28
13063 16326 16329 28
13064 16326 16330 28
13065 16331 16332 28
13066 16331 16333 28
13067 16331 16334 28
13068 16331 16335 28
13069 16336 16337 28
13070 16336 16338 28
13071 16336 16339 28
13072 16336 16340 28
13073 16341 16342 28
13074 16341 16343 28
13075 16341 16344 28
13076 16341 16345 28
13077 16346 16347 28
13078 16346 16348 28
13079 16346 16349 28
13080 16346 16350 28
13081 16351 16352 28
13082 16351 16353 28
13083 16351 16354 28
13084 16351 16355 28
13085 16356 16357 28
13086 16356 16358 28
13087 16356 16359 28
13088 16356 16360 28
13089 16361 16362 28
13090 16361 16363 28
13091 16361 16364 28
13092 16361 16365 28
13093 16366 16367 28
13094 16366 16368 28
13095 16366 16369 28
13096 16366 16370 28
13097 16371 16372 28
13098 16371 16373 28
13099 16371 16374 28
13100 16371 16375 28
13101 16376 16377 28
13102 16376 16378 28
13103 16376 16379 28
13104 16376 16380 28
13105 16381 16382 28
13106 16381 16383 28
13107 16381 16384 28
13108 16381 16385 28
13109 16386 16387 28
13110 16386 16388 28
13111 16386 16389 28
13112 16386 16390 28
13113 16391 16392 28
13114 16391 16393 28
13115 16391 16394 28
13116 16391 16395 28
13117 16396 16397 28
13118 16396 16398 28
13119 16396 16399 28
13120 16396 16400 28
13121 16401 16402 28
13122 16401 16403 28
13123 16401 16404 28
13124 16401 16405 28
13125 16406 16407 28
13126 16406 16408 28
13127 16406 16409 28
13128 16406 16410 28
13129 16411 16412 28
13130 16411 16413 28
13131 16411 16414 28
13132 16411 16415 28
13133 16416 16417 28
13134 16416 16418 28
13135 16416 16419 28
13136 16416 16420 28
13137 16421 16422 28
13138 16421 16423 28
13139 16421 16424 28
13140 16421 16425 28
13141 16426 16427 28
13142 16426 16428 28
13143 16426 16429 28
13144 16426 16430 28
13145 16431 16432 28
13146 16431 16433 28
13147 16431 16434 28
13148 16431 16435 28
13149 16436 16437 28
13150 16436 16438 28
13151 16436 16439 28
13152 16436 16440 28
13153 16441 16442 28
13154 16441 16443 28
13155 16441 16444 28
13156 16441 16445 28
13157 16446 16447 28
13158 16446 16448 28
13159 16446 16449 28
13160 16446 16450 28
13161 16451 16452 28
13162 16451 16453 28
13163 16451 16454 28
13164 16451 16455 28
13165 16456 16457 28
13166 16456 16458 28
13167 16456 16459 28
13168 16456 16460 28
13169 16461 16462 28
13170 16461 16463 28
13171 16461 16464 28
13172 16461 16465 28
13173 16466 16467 28
13174 16466 16468 28
13175 16466 16469 28
13176 16466 16470 28
13177 16471 16472 28
13178 16471 16473 28
13179 16471 16474 28
13180 16471 16475 28
13181 16476 16477 28
13182 16476 16478 28
13183 16476 16479 28
13184 16476 16480 28
13185 16481 16482 28
13186 16481 16483 28
13187 16481 16484 28
13188 16481 16485 28
13189 16486 16487 28
13190 16486 16488 28
13191 16486 16489 28
13192 16486 16490 28
13193 16491 16492 28
13194 16491 16493 28
13195 16491 16494 28
13196 16491 16495 28
13197 16496 16497 28
13198 16496 16498 28
13199 16496 16499 28
13200 16496 16500 28
13201 16501 16502 28
13202 16501 16503 28
13203 16501 16504 28
13204 16501 16505 28
13205 16506 16507 28
13206 16506 16508 28
13207 16506 16509 28
13208 16506 16510 28
13209 16511 16512 28
13210 16511 16513 28
13211 16511 16514 28
13212 16511 16515 28
13213 16516 16517 28
13214 16516 16518 28
13215 16516 16519 28
13216 16516 16520 28
13217 16521 16522 28
13218 16521 16523 28
13219 16521 16524 28
13220 16521 16525 28
13221 16526 16527 28
13222 16526 16528 28
13223 16526 16529 28
13224 16526 16530 28
13225 16531 16532 28
13226 16531 16533 28
13227 16531 16534 28
13228 16531 16535 28
13229 16536 16537 28
13230 16536 16538 28
13231 16536 16539 28
13232 16536 16540 28
13233 16541 16542 28
13234 16541 16543 28
13235 16541 16544 28
13236 16541 16545 28
13237 16546 16547 28
13238 16546 16548 28
13239 16546 16549 28
13240 16546 16550 28
13241 16551 16552 28
13242 16551 16553 28
13243 16551 16554 28
13244 16551 16555 28
13245 16556 16557 28
13246 16556 16558 28
13247 16556 16559 28
13248 16556 16560 28
13249 16561 16562 28
13250 16561 16563 28
13251 16561 16564 28
13252 16561 16565 28
13253 16566 16567 28
13254 16566 16568 28
13255 16566 16569 28
13256 16566 16570 28
13257 16571 16572 28
13258 16571 16573 28
13259 16571 16574 28
13260 16571 16575 28
13261 16576 16577 28
13262 16576 16578 28
13263 16576 16579 28
13264 16576 16580 28
13265 16581 16582 28
13266 16581 16583 28
13267 16581 16584 28
13268 16581 16585 28
13269 16586 16587 28
13270 16586 16588 28
13271 16586 16589 28
13272 16586 16590 28
13273 16591 16592 28
13274 16591 16593 28
13275 16591 16594 28
13276 16591 16595 28
13277 16596 16597 28
13278 16596 16598 28
13279 16596 16599 28
13280 16596 16600 28
13281 16601 16602 28
13282 16601 16603 28
13283 16601 16604 28
13284 16601 16605 28
13285 16606 16607 28
13286 16606 16608 28
13287 16606 16609 28
13288 16606 16610 28
13289 16611 16612 28
13290 16611 16613 28
13291 16611 16614 28
13292 16611 16615 28
13293 16616 16617 28
13294 16616 16618 28
13295 16616 16619 28
13296 16616 16620 28
13297 16621 16622 28
13298 16621 16623 28
13299 16621 16624 28
13300 16621 16625 28
13301 16626 16627 28
13302 16626 16628 28
13303 16626 16629 28
13304 16626 16630 28
13305 16631 16632 28
13306 16631 16633 28
13307 16631 16634 28
13308 16631 16635 28
13309 16636 16637 28
13310 16636 16638 28
13311 16636 16639 28
13312 16636 16640 28
13313 16641 16642 28
13314 16641 16643 28
13315 16641 16644 28
13316 16641 16645 28
13317 16646 16647 28
13318 16646 16648 28
13319 16646 16649 28
13320 16646 16650 28
13321 16651 16652 28
13322 16651 16653 28
13323 16651 16654 28
13324 16651 16655 28
13325 16656 16657 28
13326 16656 16658 28
13327 16656 16659 28
13328 16656 16660 28
13329 16661 16662 28
13330 16661 16663 28
13331 16661 16664 28
13332 16661 16665 28
13333 16666 16667 28
13334 16666 16668 28
13335 16666 16669 28
13336 16666 16670 28
13337 16671 16672 28
13338 16671 16673 28
13339 16671 16674 28
13340 16671 16675 28
13341 16676 16677 28
13342 16676 16678 28
13343 16676 16679 28
13344 16676 16680 28
13345 16681 16682 28
13346 16681 16683 28
13347 16681 16684 28
13348 16681 16685 28
13349 16686 16687 28
13350 16686 16688 28
13351 16686 16689 28
13352 16686 16690 28
13353 16691 16692 28
13354 16691 16693 28
13355 16691 16694 28
13356 16691 16695 28
13357 16696 16697 28
13358 16696 16698 28
13359 16696 16699 28
13360 16696 16700 28
13361 16701 16702 28
13362 16701 16703 28
13363 16701 16704 28
13364 16701 16705 28
13365 16706 16707 28
13366 16706 16708 28
13367 16706 16709 28
13368 16706 16710 28
13369 16711 16712 28
13370 16711 16713 28
13371 16711 16714 28
13372 16711 16715 28
13373 16716 16717 28
13374 16716 16718 28
13375 16716 16719 28
13376 16716 16720 28
13377 16721 16722 28
13378 16721 16723 28
13379 16721 16724 28
13380 16721 16725 28
13381 16726 16727 28
13382 16726 16728 28
13383 16726 16729 28
13384 16726 16730 28
13385 16731 16732 28
13386 16731 16733 28
13387 16731 16734 28
13388 16731 16735 28
13389 16736 16737 28
13390 16736 16738 28
13391 16736 16739 28
13392 16736 16740 28
13393 16741 16742 28
13394 16741 16743 28
13395 16741 16744 28
13396 16741 16745 28
13397 16746 16747 28
13398 16746 16748 28
13399 16746 16749 28
13400 16746 16750 28
13401 16751 16752 28
13402 16751 16753 28
13403 16751 16754 28
13404 16751 16755 28
13405 16756 16757 28
13406 16756 16758 28
13407 16756 16759 28
13408 16756 16760 28
13409 16761 16762 28
13410 16761 16763 28
13411 16761 16764 28
13412 16761 16765 28
13413 16766 16767 28
13414 16766 16768 28
13415 16766 16769 28
13416 16766 16770 28
13417 16771 16772 28
13418 16771 16773 28
13419 16771 16774 28
13420 16771 16775 28
13421 16776 16777 28
13422 16776 16778 28
13423 16776 16779 28
13424 16776 16780 28
13425 16781 16782 28
13426 16781 16783 28
13427 16781 16784 28
13428 16781 16785 28
13429 16786 16787 28
13430 16786 16788 28
13431 16786 16789 28
13432 16786 16790 28
13433 16791 16792 28
13434 16791 16793 28
13435 16791 16794 28
13436 16791 16795 28
13437 16796 16797 28
13438 16796 16798 28
13439 16796 16799 28
13440 16796 16800 28
13441 16801 16802 28
13442 16801 16803 28
13443 16801 16804 28
13444 16801 16805 28
13445 16806 16807 28
13446 16806 16808 28
13447 16806 16809 28
13448 16806 16810 28
13449 16811 16812 28
13450 16811 16813 28
13451 16811 16814 28
13452 16811 16815 28
13453 16816 16817 28
13454 16816 16818 28
13455 16816 16819 28
13456 16816 16820 28
13457 16821 16822 28
13458 16821 16823 28
13459 16821 16824 28
13460 16821 16825 28
13461 16826 16827 28
13462 16826 16828 28
13463 16826 16829 28
13464 16826 16830 28
13465 16831 16832 28
13466 16831 16833 28
13467 16831 16834 28
13468 16831 16835 28
13469 16836 16837 28
13470 16836 16838 28
13471 16836 16839 28
13472 16836 16840 28
13473 16841 16842 28
13474 16841 16843 28
13475 16841 16844 28
13476 16841 16845 28
13477 16846 16847 28
13478 16846 16848 28
13479 16846 16849 28
13480 16846 16850 28
13481 16851 16852 28
13482 16851 16853 28
13483 16851 16854 28
13484 16851 16855 28
13485 16856 16857 28
13486 16856 16858 28
13487 16856 16859 28
13488 16856 16860 28
13489 16861 16862 28
13490 16861 16863 28
13491 16861 16864 28
13492 16861 16865 28
13493 16866 16867 28
13494 16866 16868 28
13495 16866 16869 28
13496 16866 16870 28
13497 16871 16872 28
13498 16871 16873 28
13499 16871 16874 28
13500 16871 16875 28
13501 16876 16877 28
13502 16876 16878 28
13503 16876 16879 28
13504 16876 16880 28
13505 16881 16882 28
13506 16881 16883 28
13507 16881 16884 28
13508 16881 16885 28
13509 16886 16887 28
13510 16886 16888 28
13511 16886 16889 28
13512 16886 16890 28
13513 16891 16892 28
13514 16891 16893 28
13515 16891 16894 28
13516 16891 16895 28
13517 16896 16897 28
13518 16896 16898 28
13519 16896 16899 28
13520 16896 16900 28
13521 16901 16902 28
13522 16901 16903 28
13523 16901 16904 28
13524 16901 16905 28
13525 16906 16907 28
13526 16906 16908 28
13527 16906 16909 28
13528 16906 16910 28
13529 16911 16912 28
13530 16911 16913 28
13531 16911 16914 28
13532 16911 16915 28
13533 16916 16917 28
13534 16916 16918 28
13535 16916 16919 28
13536 16916 16920 28
13537 16921 16922 28
13538 16921 16923 28
13539 16921 16924 28
13540 16921 16925 28
13541 16926 16927 28
13542 16926 16928 28
13543 16926 16929 28
13544 16926 16930 28
13545 16931 16932 28
13546 16931 16933 28
13547 16931 16934 28
13548 16931 16935 28
13549 16936 16937 28
13550 16936 16938 28
13551 16936 16939 28
13552 16936 16940 28
13553 16941 16942 28
13554 16941 16943 28
13555 16941 16944 28
13556 16941 16945 28
13557 16946 16947 28
13558 16946 16948 28
13559 16946 16949 28
13560 16946 16950 28
13561 16951 16952 28
13562 16951 16953 28
13563 16951 16954 28
13564 16951 16955 28
13565 16956 16957 28
13566 16956 16958 28
13567 16956 16959 28
13568 16956 16960 28
13569 16961 16962 28
13570 16961 16963 28
13571 16961 16964 28
13572 16961 16965 28
13573 16966 16967 28
13574 16966 16968 28
13575 16966 16969 28
13576 16966 16970 28
13577 16971 16972 28
13578 16971 16973 28
13579 16971 16974 28
13580 16971 16975 28
13581 16976 16977 28
13582 16976 16978 28
13583 16976 16979 28
13584 16976 16980 28
13585 16981 16982 28
13586 16981 16983 28
13587 16981 16984 28
13588 16981 16985 28
13589 16986 16987 28
13590 16986 16988 28
13591 16986 16989 28
13592 16986 16990 28
13593 16991 16992 28
13594 16991 16993 28
13595 16991 16994 28
13596 16991 16995 28
13597 16996 16997 28
13598 16996 16998 28
13599 16996 16999 28
13600 16996 17000 28
13601 17001 17002 28
13602 17001 17003 28
13603 17001 17004 28
13604 17001 17005 28
13605 17006 17007 28
13606 17006 17008 28
13607 17006 17009 28
13608 17006 17010 28
13609 17011 17012 28
13610 17011 17013 28
13611 17011 17014 28
13612 17011 17015 28
13613 17016 17017 28
13614 17016 17018 28
13615 17016 17019 28
13616 17016 17020 28
13617 17021 17022 28
13618 17021 17023 28
13619 17021 17024 28
13620 17021 17025 28
13621 17026 17027 28
13622 17026 17028 28
13623 17026 17029 28
13624 17026 17030 28
13625 17031 17032 28
13626 17031 17033 28
13627 17031 17034 28
13628 17031 17035 28
13629 17036 17037 28
13630 17036 17038 28
13631 17036 17039 28
13632 17036 17040 28
13633 17041 17042 28
13634 17041 17043 28
13635 17041 17044 28
13636 17041 17045 28
13637 17046 17047 28
13638 17046 17048 28
13639 17046 17049 28
13640 17046 17050 28
13641 17051 17052 28
13642 17051 17053 28
13643 17051 17054 28
13644 17051 17055 28
13645 17056 17057 28
13646 17056 17058 28
13647 17056 17059 28
13648 17056 17060 28
13649 17061 17062 28
13650 17061 17063 28
13651 17061 17064 28
13652 17061 17065 28
13653 17066 17067 28
13654 17066 17068 28
13655 17066 17069 28
13656 17066 17070 28
13657 17071 17072 28
13658 17071 17073 28
13659 17071 17074 28
13660 17071 17075 28
13661 17076 17077 28
13662 17076 17078 28
13663 17076 17079 28
13664 17076 17080 28
13665 17081 17082 28
13666 17081 17083 28
13667 17081 17084 28
13668 17081 17085 28
13669 17086 17087 28
13670 17086 17088 28
13671 17086 17089 28
13672 17086 17090 28
13673 17091 17092 28
13674 17091 17093 28
13675 17091 17094 28
13676 17091 17095 28
13677 17096 17097 28
13678 17096 17098 28
13679 17096 17099 28
13680 17096 17100 28
13681 17101 17102 28
13682 17101 17103 28
13683 17101 17104 28
13684 17101 17105 28
13685 17106 17107 28
13686 17106 17108 28
13687 17106 17109 28
13688 17106 17110 28
13689 17111 17112 28
13690 17111 17113 28
13691 17111 17114 28
13692 17111 17115 28
13693 17116 17117 28
13694 17116 17118 28
13695 17116 17119 28
13696 17116 17120 28
13697 17121 17122 28
13698 17121 17123 28
13699 17121 17124 28
13700 17121 17125 28
13701 17126 17127 28
13702 17126 17128 28
13703 17126 17129 28
13704 17126 17130 28
13705 17131 17132 28
13706 17131 17133 28
13707 17131 17134 28
13708 17131 17135 28
13709 17136 17137 28
13710 17136 17138 28
13711 17136 17139 28
13712 17136 17140 28
13713 17141 17142 28
13714 17141 17143 28
13715 17141 17144 28
13716 17141 17145 28
13717 17146 17147 28
13718 17146 17148 28
13719 17146 17149 28
13720 17146 17150 28
13721 17151 17152 28
13722 17151 17153 28
13723 17151 17154 28
13724 17151 17155 28
13725 17156 17157 28
13726 17156 17158 28
13727 17156 17159 28
13728 17156 17160 28
13729 17161 17162 28
13730 17161 17163 28
13731 17161 17164 28
13732 17161 17165 28
13733 17166 17167 28
13734 17166 17168 28
13735 17166 17169 28
13736 17166 17170 28
13737 17171 17172 28
13738 17171 17173 28
13739 17171 17174 28
13740 17171 17175 28
13741 17176 17177 28
13742 17176 17178 28
13743 17176 17179 28
13744 17176 17180 28
13745 17181 17182 28
13746 17181 17183 28
13747 17181 17184 28
13748 17181 17185 28
13749 17186 17187 28
13750 17186 17188 28
13751 17186 17189 28
13752 17186 17190 28
13753 17191 17192 28
13754 17191 17193 28
13755 17191 17194 28
13756 17191 17195 28
13757 17196 17197 28
13758 17196 17198 28
13759 17196 17199 28
13760 17196 17200 28
13761 17201 17202 28
13762 17201 17203 28
13763 17201 17204 28
13764 17201 17205 28
13765 17206 17207 28
13766 17206 17208 28
13767 17206 17209 28
13768 17206 17210 28
13769 17211 17212 28
13770 17211 17213 28
13771 17211 17214 28
13772 17211 17215 28
13773 17216 17217 28
13774 17216 17218 28
13775 17216 17219 28
13776 17216 17220 28
13777 17221 17222 28
13778 17221 17223 28
13779 17221 17224 28
13780 17221 17225 28
13781 17226 17227 28
13782 17226 17228 28
13783 17226 17229 28
13784 17226 17230 28
13785 17231 17232 28
13786 17231 17233 28
13787 17231 17234 28
13788 17231 17235 28
13789 17236 17237 28
13790 17236 17238 28
13791 17236 17239 28
13792 17236 17240 28
13793 17241 17242 28
13794 17241 17243 28
13795 17241 17244 28
13796 17241 17245 28
13797 17246 17247 28
13798 17246 17248 28
13799 17246 17249 28
13800 17246 17250 28
13801 17251 17252 28
13802 17251 17253 28
13803 17251 17254 28
13804 17251 17255 28
13805 17256 17257 28
13806 17256 17258 28
13807 17256 17259 28
13808 17256 17260 28
13809 17261 17262 28
13810 17261 17263 28
13811 17261 17264 28
13812 17261 17265 28
13813 17266 17267 28
13814 17266 17268 28
13815 17266 17269 28
13816 17266 17270 28
13817 17271 17272 28
13818 17271 17273 28
13819 17271 17274 28
13820 17271 17275 28
13821 17276 17277 28
13822 17276 17278 28
13823 17276 17279 28
13824 17276 17280 28
13825 17281 17282 28
13826 17281 17283 28
13827 17281 17284 28
13828 17281 17285 28
13829 17286 17287 28
13830 17286 17288 28
13831 17286 17289 28
13832 17286 17290 28
13833 17291 17292 28
13834 17291 17293 28
13835 17291 17294 28
13836 17291 17295 28
13837 17296 17297 28
13838 17296 17298 28
13839 17296 17299 28
13840 17296 17300 28
13841 17301 17302 28
13842 17301 17303 28
13843 17301 17304 28
13844 17301 17305 28
13845 17306 17307 28
13846 17306 17308 28
13847 17306 17309 28
13848 17306 17310 28
13849 17311 17312 28
13850 17311 17313 28
13851 17311 17314 28
13852 17311 17315 28
13853 17316 17317 28
13854 17316 17318 28
13855 17316 17319 28
13856 17316 17320 28
13857 17321 17322 28
13858 17321 17323 28
13859 17321 17324 28
13860 17321 17325 28
13861 17326 17327 28
13862 17326 17328 28
13863 17326 17329 28
13864 17326 17330 28
13865 17331 17332 28
13866 17331 17333 28
13867 17331 17334 28
13868 17331 17335 28
13869 17336 17337 28
13870 17336 17338 28
13871 17336 17339 28
13872 17336 17340 28
13873 17341 17342 28
13874 17341 17343 28
13875 17341 17344 28
13876 17341 17345 28
13877 17346 17347 28
13878 17346 17348 28
13879 17346 17349 28
13880 17346 17350 28
13881 17351 17352 28
13882 17351 17353 28
13883 17351 17354 28
13884 17351 17355 28
13885 17356 17357 28
13886 17356 17358 28
13887 17356 17359 28
13888 17356 17360 28
13889 17361 17362 28
13890 17361 17363 28
13891 17361 17364 28
13892 17361 17365 28
13893 17366 17367 28
13894 17366 17368 28
13895 17366 17369 28
13896 17366 17370 28
13897 17371 17372 28
13898 17371 17373 28
13899 17371 17374 28
13900 17371 17375 28
13901 17376 17377 28
13902 17376 17378 28
13903 17376 17379 28
13904 17376 17380 28
13905 17381 17382 28
13906 17381 17383 28
13907 17381 17384 28
13908 17381 17385 28
13909 17386 17387 28
13910 17386 17388 28
13911 17386 17389 28
13912 17386 17390 28
13913 17391 17392 28
13914 17391 17393 28
13915 17391 17394 28
13916 17391 17395 28
13917 17396 17397 28
13918 17396 17398 28
13919 17396 17399 28
13920 17396 17400 28
13921 17401 17402 28
13922 17401 17403 28
13923 17401 17404 28
13924 17401 17405 28
13925 17406 17407 28
13926 17406 17408 28
13927 17406 17409 28
13928 17406 17410 28
13929 17411 17412 28
13930 17411 17413 28
13931 17411 17414 28
13932 17411 17415 28
13933 17416 17417 28
13934 17416 17418 28
13935 17416 17419 28
13936 17416 17420 28
13937 17421 17422 28
13938 17421 17423 28
13939 17421 17424 28
13940 17421 17425 28
13941 17426 17427 28
13942 17426 17428 28
13943 17426 17429 28
13944 17426 17430 28
13945 17431 17432 28
13946 17431 17433 28
13947 17431 17434 28
13948 17431 17435 28
13949 17436 17437 28
13950 17436 17438 28
13951 17436 17439 28
13952 17436 17440 28
13953 17441 17442 28
13954 17441 17443 28
13955 17441 17444 28
13956 17441 17445 28
13957 17446 17447 28
13958 17446 17448 28
13959 17446 17449 28
13960 17446 17450 28
13961 17451 17452 28
13962 17451 17453 28
13963 17451 17454 28
13964 17451 17455 28
13965 17456 17457 28
13966 17456 17458 28
13967 17456 17459 28
13968 17456 17460 28
13969 17461 17462 28
13970 17461 17463 28
13971 17461 17464 28
13972 17461 17465 28
13973 17466 17467 28
13974 17466 17468 28
13975 17466 17469 28
13976 17466 17470 28
13977 17471 17472 28
13978 17471 17473 28
13979 17471 17474 28
13980 17471 17475 28
13981 17476 17477 28
13982 17476 17478 28
13983 17476 17479 28
13984 17476 17480 28
13985 17481 17482 28
13986 17481 17483 28
13987 17481 17484 28
13988 17481 17485 28
13989 17486 17487 28
13990 17486 17488 28
13991 17486 17489 28
13992 17486 17490 28
13993 17491 17492 28
13994 17491 17493 28
13995 17491 17494 28
13996 17491 17495 28
13997 17496 17497 28
13998 17496 17498 28
13999 17496 17499 28
14000 17496 17500 28
14001 17501 17502 28
14002 17501 17503 28
14003 17501 17504 28
14004 17501 17505 28
14005 17506 17507 28
14006 17506 17508 28
14007 17506 17509 28
14008 17506 17510 28
14009 17511 17512 28
14010 17511 17513 28
14011 17511 17514 28
14012 17511 17515 28
14013 17516 17517 28
14014 17516 17518 28
14015 17516 17519 28
14016 17516 17520 28
14017 17521 17522 28
14018 17521 17523 28
14019 17521 17524 28
14020 17521 17525 28
14021 17526 17527 28
14022 17526 17528 28
14023 17526 17529 28
14024 17526 17530 28
14025 17531 17532 28
14026 17531 17533 28
14027 17531 17534 28
14028 17531 17535 28
14029 17536 17537 28
14030 17536 17538 28
14031 17536 17539 28
14032 17536 17540 28
14033 17541 17542 28
14034 17541 17543 28
14035 17541 17544 28
14036 17541 17545 28
14037 17546 17547 28
14038 17546 17548 28
14039 17546 17549 28
14040 17546 17550 28
14041 17551 17552 28
14042 17551 17553 28
14043 17551 17554 28
14044 17551 17555 28
14045 17556 17557 28
14046 17556 17558 28
14047 17556 17559 28
14048 17556 17560 28
14049 17561 17562 28
14050 17561 17563 28
14051 17561 17564 28
14052 17561 17565 28
14053 17566 17567 28
14054 17566 17568 28
14055 17566 17569 28
14056 17566 17570 28
14057 17571 17572 28
14058 17571 17573 28
14059 17571 17574 28
14060 17571 17575 28
14061 17576 17577 28
14062 17576 17578 28
14063 17576 17579 28
14064 17576 17580 28
14065 17581 17582 28
14066 17581 17583 28
14067 17581 17584 28
14068 17581 17585 28
14069 17586 17587 28
14070 17586 17588 28
14071 17586 17589 28
14072 17586 17590 28
14073 17591 17592 28
14074 17591 17593 28
14075 17591 17594 28
14076 17591 17595 28
14077 17596 17597 28
14078 17596 17598 28
14079 17596 17599 28
14080 17596 17600 28
14081 17601 17602 28
14082 17601 17603 28
14083 17601 17604 28
14084 17601 17605 28
14085 17606 17607 28
14086 17606 17608 28
14087 17606 17609 28
14088 17606 17610 28
14089 17611 17612 28
14090 17611 17613 28
14091 17611 17614 28
14092 17611 17615 28
14093 17616 17617 28
14094 17616 17618 28
14095 17616 17619 28
14096 17616 17620 28
14097 17621 17622 28
14098 17621 17623 28
14099 17621 17624 28
14100 17621 17625 28
14101 17626 17627 28
14102 17626 17628 28
14103 17626 17629 28
14104 17626 17630 28
14105 17631 17632 28
14106 17631 17633 28
14107 17631 17634 28
14108 17631 17635 28
14109 17636 17637 28
14110 17636 17638 28
14111 17636 17639 28
14112 17636 17640 28
14113 17641 17642 28
14114 17641 17643 28
14115 17641 17644 28
14116 17641 17645 28
14117 17646 17647 28
14118 17646 17648 28
14119 17646 17649 28
14120 17646 17650 28
14121 17651 17652 28
14122 17651 17653 28
14123 17651 17654 28
14124 17651 17655 28
14125 17656 17657 28
14126 17656 17658 28
14127 17656 17659 28
14128 17656 17660 28
14129 17661 17662 28
14130 17661 17663 28
14131 17661 17664 28
14132 17661 17665 28
14133 17666 17667 28
14134 17666 17668 28
14135 17666 17669 28
14136 17666 17670 28
14137 17671 17672 28
14138 17671 17673 28
14139 17671 17674 28
14140 17671 17675 28
14141 17676 17677 28
14142 17676 17678 28
14143 17676 17679 28
14144 17676 17680 28
14145 17681 17682 28
14146 17681 17683 28
14147 17681 17684 28
14148 17681 17685 28
14149 17686 17687 28
14150 17686 17688 28
14151 17686 17689 28
14152 17686 17690 28
14153 17691 17692 28
14154 17691 17693 28
14155 17691 17694 28
14156 17691 17695 28
14157 17696 17697 28
14158 17696 17698 28
14159 17696 17699 28
14160 17696 17700 28
14161 17701 17702 28
14162 17701 17703 28
14163 17701 17704 28
14164 17701 17705 28
14165 17706 17707 28
14166 17706 17708 28
14167 17706 17709 28
14168 17706 17710 28
14169 17711 17712 28
14170 17711 17713 28
14171 17711 17714 28
14172 17711 17715 28
14173 17716 17717 28
14174 17716 17718 28
14175 17716 17719 28
14176 17716 17720 28
14177 17721 17722 28
14178 17721 17723 28
14179 17721 17724 28
14180 17721 17725 28
14181 17726 17727 28
14182 17726 17728 28
14183 17726 17729 28
14184 17726 17730 28
14185 17731 17732 28
14186 17731 17733 28
14187 17731 17734 28
14188 17731 17735 28
14189 17736 17737 28
14190 17736 17738 28
14191 17736 17739 28
14192 17736 17740 28
14193 17741 17742 28
14194 17741 17743 28
14195 17741 17744 28
14196 17741 17745 28
14197 17746 17747 28
14198 17746 17748 28
14199 17746 17749 28
14200 17746 17750 28
14201 17751 17752 28
14202 17751 17753 28
14203 17751 17754 28
14204 17751 17755 28
14205 17756 17757 28
14206 17756 17758 28
14207 17756 17759 28
14208 17756 17760 28
14209 17761 17762 28
14210 17761 17763 28
14211 17761 17764 28
14212 17761 17765 28
14213 17766 17767 28
14214 17766 17768 28
14215 17766 17769 28
14216 17766 17770 28
14217 17771 17772 28
14218 17771 17773 28
14219 17771 17774 28
14220 17771 17775 28
14221 17776 17777 28
14222 17776 17778 28
14223 17776 17779 28
14224 17776 17780 28
14225 17781 17782 28
14226 17781 17783 28
14227 17781 17784 28
14228 17781 17785 28
14229 17786 17787 28
14230 17786 17788 28
14231 17786 17789 28
14232 17786 17790 28
14233 17791 17792 28
14234 17791 17793 28
14235 17791 17794 28
14236 17791 17795 28
14237 17796 17797 28
14238 17796 17798 28
14239 17796 17799 28
14240 17796 17800 28
14241 17801 17802 28
14242 17801 17803 28
14243 17801 17804 28
14244 17801 17805 28
14245 17806 17807 28
14246 17806 17808 28
14247 17806 17809 28
14248 17806 17810 28
14249 17811 17812 28
14250 17811 17813 28
14251 17811 17814 28
14252 17811 17815 28
14253 17816 17817 28
14254 17816 17818 28
14255 17816 17819 28
14256 17816 17820 28
14257 17821 17822 28
14258 17821 17823 28
14259 17821 17824 28
14260 17821 17825 28
14261 17826 17827 28
14262 17826 17828 28
14263 17826 17829 28
14264 17826 17830 28
14265 17831 17832 28
14266 17831 17833 28
14267 17831 17834 28
14268 17831 17835 28
14269 17836 17837 28
14270 17836 17838 28
14271 17836 17839 28
14272 17836 17840 28
14273 17841 17842 28
14274 17841 17843 28
14275 17841 17844 28
14276 17841 17845 28
14277 17846 17847 28
14278 17846 17848 28
14279 17846 17849 28
14280 17846 17850 28
14281 17851 17852 28
14282 17851 17853 28
14283 17851 17854 28
14284 17851 17855 28
14285 17856 17857 28
14286 17856 17858 28
14287 17856 17859 28
14288 17856 17860 28
14289 17861 17862 28
14290 17861 17863 28
14291 17861 17864 28
14292 17861 17865 28
14293 17866 17867 28
14294 17866 17868 28
14295 17866 17869 28
14296 17866 17870 28
14297 17871 17872 28
14298 17871 17873 28
14299 17871 17874 28
14300 17871 17875 28
14301 17876 17877 28
14302 17876 17878 28
14303 17876 17879 28
14304 17876 17880 28
14305 17881 17882 28
14306 17881 17883 28
14307 17881 17884 28
14308 17881 17885 28
14309 17886 17887 28
14310 17886 17888 28
14311 17886 17889 28
14312 17886 17890 28
14313 17891 17892 28
14314 17891 17893 28
14315 17891 17894 28
14316 17891 17895 28
14317 17896 17897 28
14318 17896 17898 28
14319 17896 17899 28
14320 17896 17900 28
14321 17901 17902 28
14322 17901 17903 28
14323 17901 17904 28
14324 17901 17905 28
14325 17906 17907 28
14326 17906 17908 28
14327 17906 17909 28
14328 17906 17910 28
14329 17911 17912 28
14330 17911 17913 28
14331 17911 17914 28
14332 17911 17915 28
14333 17916 17917 28
14334 17916 17918 28
14335 17916 17919 28
14336 17916 17920 28
14337 17921 17922 28
14338 17921 17923 28
14339 17921 17924 28
14340 17921 17925 28
14341 17926 17927 28
14342 17926 17928 28
14343 17926 17929 28
14344 17926 17930 28
14345 17931 17932 28
14346 17931 17933 28
14347 17931 17934 28
14348 17931 17935 28
14349 17936 17937 28
14350 17936 17938 28
14351 17936 17939 28
14352 17936 17940 28
14353 17941 17942 28
14354 17941 17943 28
14355 17941 17944 28
14356 17941 17945 28
14357 17946 17947 28
14358 17946 17948 28
14359 17946 17949 28
14360 17946 17950 28
14361 17951 17952 28
14362 17951 17953 28
14363 17951 17954 28
14364 17951 17955 28
14365 17956 17957 28
14366 17956 17958 28
14367 17956 17959 28
14368 17956 17960 28
14369 17961 17962 28
14370 17961 17963 28
14371 17961 17964 28
14372 17961 17965 28
14373 17966 17967 28
14374 17966 17968 28
14375 17966 17969 28
14376 17966 17970 28
14377 17971 17972 28
14378 17971 17973 28
14379 17971 17974 28
14380 17971 17975 28
14381 17976 17977 28
14382 17976 17978 28
14383 17976 17979 28
14384 17976 17980 28
14385 17981 17982 28
14386 17981 17983 28
14387 17981 17984 28
14388 17981 17985 28
14389 17986 17987 28
14390 17986 17988 28
14391 17986 17989 28
14392 17986 17990 28
14393 17991 17992 28
14394 17991 17993 28
14395 17991 17994 28
14396 17991 17995 28
14397 17996 17997 28
14398 17996 17998 28
14399 17996 17999 28
14400 17996 18000 28
14401 18001 18002 28
14402 18001 18003 28
14403 18001 18004 28
14404 18001 18005 28
14405 18006 18007 28
14406 18006 18008 28
14407 18006 18009 28
14408 18006 18010 28
14409 18011 18012 28
14410 18011 18013 28
14411 18011 18014 28
14412 18011 18015 28
14413 18016 18017 28
14414 18016 18018 28
14415 18016 18019 28
14416 18016 18020 28
14417 18021 18022 28
14418 18021 18023 28
14419 18021 18024 28
14420 18021 18025 28
14421 18026 18027 28
14422 18026 18028 28
14423 18026 18029 28
14424 18026 18030 28
14425 18031 18032 28
14426 18031 18033 28
14427 18031 18034 28
14428 18031 18035 28
14429 18036 18037 28
14430 18036 18038 28
14431 18036 18039 28
14432 18036 18040 28
14433 18041 18042 28
14434 18041 18043 28
14435 18041 18044 28
14436 18041 18045 28
14437 18046 18047 28
14438 18046 18048 28
14439 18046 18049 28
14440 18046 18050 28
14441 18051 18052 28
14442 18051 18053 28
14443 18051 18054 28
14444 18051 18055 28
14445 18056 18057 28
14446 18056 18058 28
14447 18056 18059 28
14448 18056 18060 28
14449 18061 18062 28
14450 18061 18063 28
14451 18061 18064 28
14452 18061 18065 28
14453 18066 18067 28
14454 18066 18068 28
14455 18066 18069 28
14456 18066 18070 28
14457 18071 18072 28
14458 18071 18073 28
14459 18071 18074 28
14460 18071 18075 28
14461 18076 18077 28
14462 18076 18078 28
14463 18076 18079 28
14464 18076 18080 28
14465 18081 18082 28
14466 18081 18083 28
14467 18081 18084 28
14468 18081 18085 28
14469 18086 18087 28
14470 18086 18088 28
14471 18086 18089 28
14472 18086 18090 28
14473 18091 18092 28
14474 18091 18093 28
14475 18091 18094 28
14476 18091 18095 28
14477 18096 18097 28
14478 18096 18098 28
14479 18096 18099 28
14480 18096 18100 28
14481 18101 18102 28
14482 18101 18103 28
14483 18101 18104 28
14484 18101 18105 28
14485 18106 18107 28
14486 18106 18108 28
14487 18106 18109 28
14488 18106 18110 28
14489 18111 18112 28
14490 18111 18113 28
14491 18111 18114 28
14492 18111 18115 28
14493 18116 18117 28
14494 18116 18118 28
14495 18116 18119 28
14496 18116 18120 28
14497 18121 18122 28
14498 18121 18123 28
14499 18121 18124 28
14500 18121 18125 28
14501 18126 18127 28
14502 18126 18128 28
14503 18126 18129 28
14504 18126 18130 28
14505 18131 18132 28
14506 18131 18133 28
14507 18131 18134 28
14508 18131 18135 28
14509 18136 18137 28
14510 18136 18138 28
14511 18136 18139 28
14512 18136 18140 28
14513 18141 18142 28
14514 18141 18143 28
14515 18141 18144 28
14516 18141 18145 28
14517 18146 18147 28
14518 18146 18148 28
14519 18146 18149 28
14520 18146 18150 28
14521 18151 18152 28
14522 18151 18153 28
14523 18151 18154 28
14524 18151 18155 28
14525 18156 18157 28
14526 18156 18158 28
14527 18156 18159 28
14528 18156 18160 28
14529 18161 18162 28
14530 18161 18163 28
14531 18161 18164 28
14532 18161 18165 28
14533 18166 18167 28
14534 18166 18168 28
14535 18166 18169 28
14536 18166 18170 28
14537 18171 18172 28
14538 18171 18173 28
14539 18171 18174 28
14540 18171 18175 28
14541 18176 18177 28
14542 18176 18178 28
14543 18176 18179 28
14544 18176 18180 28
14545 18181 18182 28
14546 18181 18183 28
14547 18181 18184 28
14548 18181 18185 28
14549 18186 18187 28
14550 18186 18188 28
14551 18186 18189 28
14552 18186 18190 28
14553 18191 18192 28
14554 18191 18193 28
14555 18191 18194 28
14556 18191 18195 28
14557 18196 18197 28
14558 18196 18198 28
14559 18196 18199 28
14560 18196 18200 28
14561 18201 18202 28
14562 18201 18203 28
14563 18201 18204 28
14564 18201 18205 28
14565 18206 18207 28
14566 18206 18208 28
14567 18206 18209 28
14568 18206 18210 28
14569 18211 18212 28
14570 18211 18213 28
14571 18211 18214 28
14572 18211 18215 28
14573 18216 18217 28
14574 18216 18218 28
14575 18216 18219 28
14576 18216 18220 28
14577 18221 18222 28
14578 18221 18223 28
14579 18221 18224 28
14580 18221 18225 28
14581 18226 18227 28
14582 18226 18228 28
14583 18226 18229 28
14584 18226 18230 28
14585 18231 18232 28
14586 18231 18233 28
14587 18231 18234 28
14588 18231 18235 28
14589 18236 18237 28
14590 18236 18238 28
14591 18236 18239 28
14592 18236 18240 28
14593 18241 18242 28
14594 18241 18243 28
14595 18241 18244 28
14596 18241 18245 28
14597 18246 18247 28
14598 18246 18248 28
14599 18246 18249 28
14600 18246 18250 28
14601 18251 18252 28
14602 18251 18253 28
14603 18251 18254 28
14604 18251 18255 28
14605 18256 18257 28
14606 18256 18258 28
14607 18256 18259 28
14608 18256 18260 28
14609 18261 18262 28
14610 18261 18263 28
14611 18261 18264 28
14612 18261 18265 28
14613 18266 18267 28
14614 18266 18268 28
14615 18266 18269 28
14616 18266 18270 28
14617 18271 18272 28
14618 18271 18273 28
14619 18271 18274 28
14620 18271 18275 28
14621 18276 18277 28
14622 18276 18278 28
14623 18276 18279 28
14624 18276 18280 28
14625 18281 18282 28
14626 18281 18283 28
14627 18281 18284 28
14628 18281 18285 28
14629 18286 18287 28
14630 18286 18288 28
14631 18286 18289 28
14632 18286 18290 28
14633 18291 18292 28
14634 18291 18293 28
14635 18291 18294 28
14636 18291 18295 28
14637 18296 18297 28
14638 18296 18298 28
14639 18296 18299 28
14640 18296 18300 28
14641 18301 18302 28
14642 18301 18303 28
14643 18301 18304 28
14644 18301 18305 28
14645 18306 18307 28
14646 18306 18308 28
14647 18306 18309 28
14648 18306 18310 28
14649 18311 18312 28
14650 18311 18313 28
14651 18311 18314 28
14652 18311 18315 28
14653 18316 18317 28
14654 18316 18318 28
14655 18316 18319 28
14656 18316 18320 28
14657 18321 18322 28
14658 18321 18323 28
14659 18321 18324 28
14660 18321 18325 28
14661 18326 18327 28
14662 18326 18328 28
14663 18326 18329 28
14664 18326 18330 28
14665 18331 18332 28
14666 18331 18333 28
14667 18331 18334 28
14668 18331 18335 28
14669 18336 18337 28
14670 18336 18338 28
14671 18336 18339 28
14672 18336 18340 28
14673 18341 18342 28
14674 18341 18343 28
14675 18341 18344 28
14676 18341 18345 28
14677 18346 18347 28
14678 18346 18348 28
14679 18346 18349 28
14680 18346 18350 28
14681 18351 18352 28
14682 18351 18353 28
14683 18351 18354 28
14684 18351 18355 28
14685 18356 18357 28
14686 18356 18358 28
14687 18356 18359 28
14688 18356 18360 28
14689 18361 18362 28
14690 18361 18363 28
14691 18361 18364 28
14692 18361 18365 28
14693 18366 18367 28
14694 18366 18368 28
14695 18366 18369 28
14696 18366 18370 28
14697 18371 18372 28
14698 18371 18373 28
14699 18371 18374 28
14700 18371 18375 28
14701 18376 18377 28
14702 18376 18378 28
14703 18376 18379 28
14704 18376 18380 28
14705 18381 18382 28
14706 18381 18383 28
14707 18381 18384 28
14708 18381 18385 28
14709 18386 18387 28
14710 18386 18388 28
14711 18386 18389 28
14712 18386 18390 28
14713 18391 18392 28
14714 18391 18393 28
14715 18391 18394 28
14716 18391 18395 28
14717 18396 18397 28
14718 18396 18398 28
14719 18396 18399 28
14720 18396 18400 28
14721 18401 18402 28
14722 18401 18403 28
14723 18401 18404 28
14724 18401 18405 28
14725 18406 18407 28
14726 18406 18408 28
14727 18406 18409 28
14728 18406 18410 28
14729 18411 18412 28
14730 18411 18413 28
14731 18411 18414 28
14732 18411 18415 28
14733 18416 18417 28
14734 18416 18418 28
14735 18416 18419 28
14736 18416 18420 28
14737 18421 18422 28
14738 18421 18423 28
14739 18421 18424 28
14740 18421 18425 28
14741 18426 18427 28
14742 18426 18428 28
14743 18426 18429 28
14744 18426 18430 28
14745 18431 18432 28
14746 18431 18433 28
14747 18431 18434 28
14748 18431 18435 28
14749 18436 18437 28
14750 18436 18438 28
14751 18436 18439 28
14752 18436 18440 28
14753 18441 18442 28
14754 18441 18443 28
14755 18441 18444 28
14756 18441 18445 28
14757 18446 18447 28
14758 18446 18448 28
14759 18446 18449 28
14760 18446 18450 28
14761 18451 18452 28
14762 18451 18453 28
14763 18451 18454 28
14764 18451 18455 28
14765 18456 18457 28
14766 18456 18458 28
14767 18456 18459 28
14768 18456 18460 28
14769 18461 18462 28
14770 18461 18463 28
14771 18461 18464 28
14772 18461 18465 28
14773 18466 18467 28
14774 18466 18468 28
14775 18466 18469 28
14776 18466 18470 28
14777 18471 18472 28
14778 18471 18473 28
14779 18471 18474 28
14780 18471 18475 28
14781 18476 18477 28
14782 18476 18478 28
14783 18476 18479 28
14784 18476 18480 28
14785 18481 18482 28
14786 18481 18483 28
14787 18481 18484 28
14788 18481 18485 28
14789 18486 18487 28
14790 18486 18488 28
14791 18486 18489 28
14792 18486 18490 28
14793 18491 18492 28
14794 18491 18493 28
14795 18491 18494 28
14796 18491 18495 28
14797 18496 18497 28
14798 18496 18498 28
14799 18496 18499 28
14800 18496 18500 28
14801 18501 18502 28
14802 18501 18503 28
14803 18501 18504 28
14804 18501 18505 28
14805 18506 18507 28
14806 18506 18508 28
14807 18506 18509 28
14808 18506 18510 28
14809 18511 18512 28
14810 18511 18513 28
14811 18511 18514 28
14812 18511 18515 28
14813 18516 18517 28
14814 18516 18518 28
14815 18516 18519 28
14816 18516 18520 28
14817 18521 18522 28
14818 18521 18523 28
14819 18521 18524 28
14820 18521 18525 28
14821 18526 18527 28
14822 18526 18528 28
14823 18526 18529 28
14824 18526 18530 28
14825 18531 18532 28
14826 18531 18533 28
14827 18531 18534 28
14828 18531 18535 28
14829 18536 18537 28
14830 18536 18538 28
14831 18536 18539 28
14832 18536 18540 28
14833 18541 18542 28
14834 18541 18543 28
14835 18541 18544 28
14836 18541 18545 28
14837 18546 18547 28
14838 18546 18548 28
14839 18546 18549 28
14840 18546 18550 28
14841 18551 18552 28
14842 18551 18553 28
14843 18551 18554 28
14844 18551 18555 28
14845 18556 18557 28
14846 18556 18558 28
14847 18556 18559 28
14848 18556 18560 28
14849 18561 18562 28
14850 18561 18563 28
14851 18561 18564 28
14852 18561 18565 28
14853 18566 18567 28
14854 18566 18568 28
14855 18566 18569 28
14856 18566 18570 28
14857 18571 18572 28
14858 18571 18573 28
14859 18571 18574 28
14860 18571 18575 28
14861 18576 18577 28
14862 18576 18578 28
14863 18576 18579 28
14864 18576 18580 28
14865 18581 18582 28
14866 18581 18583 28
14867 18581 18584 28
14868 18581 18585 28
14869 18586 18587 28
14870 18586 18588 28
14871 18586 18589 28
14872 18586 18590 28
14873 18591 18592 28
14874 18591 18593 28
14875 18591 18594 28
14876 18591 18595 28
14877 18596 18597 28
14878 18596 18598 28
14879 18596 18599 28
14880 18596 18600 28
14881 18601 18602 28
14882 18601 18603 28
14883 18601 18604 28
14884 18601 18605 28
14885 18606 18607 28
14886 18606 18608 28
14887 18606 18609 28
14888 18606 18610 28
14889 18611 18612 28
14890 18611 18613 28
14891 18611 18614 28
14892 18611 18615 28
14893 18616 18617 28
14894 18616 18618 28
14895 18616 18619 28
14896 18616 18620 28
14897 18621 18622 28
14898 18621 18623 28
14899 18621 18624 28
14900 18621 18625 28
14901 18626 18627 28
14902 18626 18628 28
14903 18626 18629 28
14904 18626 18630 28
14905 18631 18632 28
14906 18631 18633 28
14907 18631 18634 28
14908 18631 18635 28
14909 18636 18637 28
14910 18636 18638 28
14911 18636 18639 28
14912 18636 18640 28
14913 18641 18642 28
14914 18641 18643 28
14915 18641 18644 28
14916 18641 18645 28
14917 18646 18647 28
14918 18646 18648 28
14919 18646 18649 28
14920 18646 18650 28
14921 18651 18652 28
14922 18651 18653 28
14923 18651 18654 28
14924 18651 18655 28
14925 18656 18657 28
14926 18656 18658 28
14927 18656 18659 28
14928 18656 18660 28
14929 18661 18662 28
14930 18661 18663 28
14931 18661 18664 28
14932 18661 18665 28
14933 18666 18667 28
14934 18666 18668 28
14935 18666 18669 28
14936 18666 18670 28
14937 18671 18672 28
14938 18671 18673 28
14939 18671 18674 28
14940 18671 18675 28
14941 18676 18677 28
14942 18676 18678 28
14943 18676 18679 28
14944 18676 18680 28
14945 18681 18682 28
14946 18681 18683 28
14947 18681 18684 28
14948 18681 18685 28
14949 18686 18687 28
14950 18686 18688 28
14951 18686 18689 28
14952 18686 18690 28
14953 18691 18692 28
14954 18691 18693 28
14955 18691 18694 28
14956 18691 18695 28
14957 18696 18697 28
14958 18696 18698 28
14959 18696 18699 28
14960 18696 18700 28
14961 18701 18702 28
14962 18701 18703 28
14963 18701 18704 28
14964 18701 18705 28
14965 18706 18707 28
14966 18706 18708 28
14967 18706 18709 28
14968 18706 18710 28
14969 18711 18712 28
14970 18711 18713 28
14971 18711 18714 28
14972 18711 18715 28
14973 18716 18717 28
14974 18716 18718 28
14975 18716 18719 28
14976 18716 18720 28
14977 18721 18722 28
14978 18721 18723 28
14979 18721 18724 28
14980 18721 18725 28
14981 18726 18727 28
14982 18726 18728 28
14983 18726 18729 28
14984 18726 18730 28
14985 18731 18732 28
14986 18731 18733 28
14987 18731 18734 28
14988 18731 18735 28
14989 18736 18737 28
14990 18736 18738 28
14991 18736 18739 28
14992 18736 18740 28
14993 18741 18742 28
14994 18741 18743 28
14995 18741 18744 28
14996 18741 18745 28
14997 18746 18747 28
14998 18746 18748 28
14999 18746 18749 28
15000 18746 18750 28
15001 18751 18752 28
15002 18751 18753 28
15003 18751 18754 28
15004 18751 18755 28
15005 18756 18757 28
15006 18756 18758 28
15007 18756 18759 28
15008 18756 18760 28
15009 18761 18762 28
15010 18761 18763 28
15011 18761 18764 28
15012 18761 18765 28
15013 18766 18767 28
15014 18766 18768 28
15015 18766 18769 28
15016 18766 18770 28
15017 18771 18772 28
15018 18771 18773 28
15019 18771 18774 28
15020 18771 18775 28
15021 18776 18777 28
15022 18776 18778 28
15023 18776 18779 28
15024 18776 18780 28
15025 18781 18782 28
15026 18781 18783 28
15027 18781 18784 28
15028 18781 18785 28
15029 18786 18787 28
15030 18786 18788 28
15031 18786 18789 28
15032 18786 18790 28
15033 18791 18792 28
15034 18791 18793 28
15035 18791 18794 28
15036 18791 18795 28
15037 18796 18797 28
15038 18796 18798 28
15039 18796 18799 28
15040 18796 18800 28
15041 18801 18802 28
15042 18801 18803 28
15043 18801 18804 28
15044 18801 18805 28
15045 18806 18807 28
15046 18806 18808 28
15047 18806 18809 28
15048 18806 18810 28
15049 18811 18812 28
15050 18811 18813 28
15051 18811 18814 28
15052 18811 18815 28
15053 18816 18817 28
15054 18816 18818 28
15055 18816 18819 28
15056 18816 18820 28
15057 18821 18822 28
15058 18821 18823 28
15059 18821 18824 28
15060 18821 18825 28
15061 18826 18827 28
15062 18826 18828 28
15063 18826 18829 28
15064 18826 18830 28
15065 18831 18832 28
15066 18831 18833 28
15067 18831 18834 28
15068 18831 18835 28
15069 18836 18837 28
15070 18836 18838 28
15071 18836 18839 28
15072 18836 18840 28
15073 18841 18842 28
15074 18841 18843 28
15075 18841 18844 28
15076 18841 18845 28
15077 18846 18847 28
15078 18846 18848 28
15079 18846 18849 28
15080 18846 18850 28
15081 18851 18852 28
15082 18851 18853 28
15083 18851 18854 28
15084 18851 18855 28
15085 18856 18857 28
15086 18856 18858 28
15087 18856 18859 28
15088 18856 18860 28
15089 18861 18862 28
15090 18861 18863 28
15091 18861 18864 28
15092 18861 18865 28
15093 18866 18867 28
15094 18866 18868 28
15095 18866 18869 28
15096 18866 18870 28
15097 18871 18872 28
15098 18871 18873 28
15099 18871 18874 28
15100 18871 18875 28
15101 18876 18877 28
15102 18876 18878 28
15103 18876 18879 28
15104 18876 18880 28
15105 18881 18882 28
15106 18881 18883 28
15107 18881 18884 28
15108 18881 18885 28
15109 18886 18887 28
15110 18886 18888 28
15111 18886 18889 28
15112 18886 18890 28
15113 18891 18892 28
15114 18891 18893 28
15115 18891 18894 28
15116 18891 18895 28
15117 18896 18897 28
15118 18896 18898 28
15119 18896 18899 28
15120 18896 18900 28
15121 18901 18902 28
15122 18901 18903 28
15123 18901 18904 28
15124 18901 18905 28
15125 18906 18907 28
15126 18906 18908 28
15127 18906 18909 28
15128 18906 18910 28
15129 18911 18912 28
15130 18911 18913 28
15131 18911 18914 28
15132 18911 18915 28
15133 18916 18917 28
15134 18916 18918 28
15135 18916 18919 28
15136 18916 18920 28
15137 18921 18922 28
15138 18921 18923 28
15139 18921 18924 28
15140 18921 18925 28
15141 18926 18927 28
15142 18926 18928 28
15143 18926 18929 28
15144 18926 18930 28
15145 18931 18932 28
15146 18931 18933 28
15147 18931 18934 28
15148 18931 18935 28
15149 18936 18937 28
15150 18936 18938 28
15151 18936 18939 28
15152 18936 18940 28
15153 18941 18942 28
15154 18941 18943 28
15155 18941 18944 28
15156 18941 18945 28
15157 18946 18947 28
15158 18946 18948 28
15159 18946 18949 28
15160 18946 18950 28
15161 18951 18952 28
15162 18951 18953 28
15163 18951 18954 28
15164 18951 18955 28
15165 18956 18957 28
15166 18956 18958 28
15167 18956 18959 28
15168 18956 18960 28
15169 18961 18962 28
15170 18961 18963 28
15171 18961 18964 28
15172 18961 18965 28
15173 18966 18967 28
15174 18966 18968 28
15175 18966 18969 28
15176 18966 18970 28
15177 18971 18972 28
15178 18971 18973 28
15179 18971 18974 28
15180 18971 18975 28
15181 18976 18977 28
15182 18976 18978 28
15183 18976 18979 28
15184 18976 18980 28
15185 18981 18982 28
15186 18981 18983 28
15187 18981 18984 28
15188 18981 18985 28
15189 18986 18987 28
15190 18986 18988 28
15191 18986 18989 28
15192 18986 18990 28
15193 18991 18992 28
15194 18991 18993 28
15195 18991 18994 28
15196 18991 18995 28
15197 18996 18997 28
15198 18996 18998 28
15199 18996 18999 28
15200 18996 19000 28
15201 19001 19002 28
15202 19001 19003 28
15203 19001 19004 28
15204 19001 19005 28
15205 19006 19007 28
15206 19006 19008 28
15207 19006 19009 28
15208 19006 19010 28
15209 19011 19012 28
15210 19011 19013 28
15211 19011 19014 28
15212 19011 19015 28
15213 19016 19017 28
15214 19016 19018 28
15215 19016 19019 28
15216 19016 19020 28
15217 19021 19022 28
15218 19021 19023 28
15219 19021 19024 28
15220 19021 19025 28
15221 19026 19027 28
15222 19026 19028 28
15223 19026 19029 28
15224 19026 19030 28
15225 19031 19032 28
15226 19031 19033 28
15227 19031 19034 28
15228 19031 19035 28
15229 19036 19037 28
15230 19036 19038 28
15231 19036 19039 28
15232 19036 19040 28
15233 19041 19042 28
15234 19041 19043 28
15235 19041 19044 28
15236 19041 19045 28
15237 19046 19047 28
15238 19046 19048 28
15239 19046 19049 28
15240 19046 19050 28
15241 19051 19052 28
15242 19051 19053 28
15243 19051 19054 28
15244 19051 19055 28
15245 19056 19057 28
15246 19056 19058 28
15247 19056 19059 28
15248 19056 19060 28
15249 19061 19062 28
15250 19061 19063 28
15251 19061 19064 28
15252 19061 19065 28
15253 19066 19067 28
15254 19066 19068 28
15255 19066 19069 28
15256 19066 19070 28
15257 19071 19072 28
15258 19071 19073 28
15259 19071 19074 28
15260 19071 19075 28
15261 19076 19077 28
15262 19076 19078 28
15263 19076 19079 28
15264 19076 19080 28
15265 19081 19082 28
15266 19081 19083 28
15267 19081 19084 28
15268 19081 19085 28
15269 19086 19087 28
15270 19086 19088 28
15271 19086 19089 28
15272 19086 19090 28
15273 19091 19092 28
15274 19091 19093 28
15275 19091 19094 28
15276 19091 19095 28
15277 19096 19097 28
15278 19096 19098 28
15279 19096 19099 28
15280 19096 19100 28
15281 19101 19102 28
15282 19101 19103 28
15283 19101 19104 28
15284 19101 19105 28
15285 19106 19107 28
15286 19106 19108 28
15287 19106 19109 28
15288 19106 19110 28
15289 19111 19112 28
15290 19111 19113 28
15291 19111 19114 28
15292 19111 19115 28
15293 19116 19117 28
15294 19116 19118 28
15295 19116 19119 28
15296 19116 19120 28
15297 19121 19122 28
15298 19121 19123 28
15299 19121 19124 28
15300 19121 19125 28
15301 19126 19127 28
15302 19126 19128 28
15303 19126 19129 28
15304 19126 19130 28
15305 19131 19132 28
15306 19131 19133 28
15307 19131 19134 28
15308 19131 19135 28
15309 19136 19137 28
15310 19136 19138 28
15311 19136 19139 28
15312 19136 19140 28
15313 19141 19142 28
15314 19141 19143 28
15315 19141 19144 28
15316 19141 19145 28
15317 19146 19147 28
15318 19146 19148 28
15319 19146 19149 28
15320 19146 19150 28
15321 19151 19152 28
15322 19151 19153 28
15323 19151 19154 28
15324 19151 19155 28
15325 19156 19157 28
15326 19156 19158 28
15327 19156 19159 28
15328 19156 19160 28
15329 19161 19162 28
15330 19161 19163 28
15331 19161 19164 28
15332 19161 19165 28
15333 19166 19167 28
15334 19166 19168 28
15335 19166 19169 28
15336 19166 19170 28
15337 19171 19172 28
15338 19171 19173 28
15339 19171 19174 28
15340 19171 19175 28
15341 19176 19177 28
15342 19176 19178 28
15343 19176 19179 28
15344 19176 19180 28
15345 19181 19182 28
15346 19181 19183 28
15347 19181 19184 28
15348 19181 19185 28
15349 19186 19187 28
15350 19186 19188 28
15351 19186 19189 28
15352 19186 19190 28
15353 19191 19192 28
15354 19191 19193 28
15355 19191 19194 28
15356 19191 19195 28
15357 19196 19197 28
15358 19196 19198 28
15359 19196 19199 28
15360 19196 19200 28
15361 19201 19202 28
15362 19201 19203 28
15363 19201 19204 28
15364 19201 19205 28
15365 19206 19207 28
15366 19206 19208 28
15367 19206 19209 28
15368 19206 19210 28
15369 19211 19212 28
15370 19211 19213 28
15371 19211 19214 28
15372 19211 19215 28
15373 19216 19217 28
15374 19216 19218 28
15375 19216 19219 28
15376 19216 19220 28
15377 19221 19222 28
15378 19221 19223 28
15379 19221 19224 28
15380 19221 19225 28
15381 19226 19227 28
15382 19226 19228 28
15383 19226 19229 28
15384 19226 19230 28
15385 19231 19232 28
15386 19231 19233 28
15387 19231 19234 28
15388 19231 19235 28
15389 19236 19237 28
15390 19236 19238 28
15391 19236 19239 28
15392 19236 19240 28
15393 19241 19242 28
15394 19241 19243 28
15395 19241 19244 28
15396 19241 19245 28
15397 19246 19247 28
15398 19246 19248 28
15399 19246 19249 28
15400 19246 19250 28
15401 19251 19252 28
15402 19251 19253 28
15403 19251 19254 28
15404 19251 19255 28
15405 19256 19257 28
15406 19256 19258 28
15407 19256 19259 28
15408 19256 19260 28
15409 19261 19262 28
15410 19261 19263 28
15411 19261 19264 28
15412 19261 19265 28
15413 19266 19267 28
15414 19266 19268 28
15415 19266 19269 28
15416 19266 19270 28
15417 19271 19272 28
15418 19271 19273 28
15419 19271 19274 28
15420 19271 19275 28
15421 19276 19277 28
15422 19276 19278 28
15423 19276 19279 28
15424 19276 19280 28
15425 19281 19282 28
15426 19281 19283 28
15427 19281 19284 28
15428 19281 19285 28
15429 19286 19287 28
15430 19286 19288 28
15431 19286 19289 28
15432 19286 19290 28
15433 19291 19292 28
15434 19291 19293 28
15435 19291 19294 28
15436 19291 19295 28
15437 19296 19297 28
15438 19296 19298 28
15439 19296 19299 28
15440 19296 19300 28
15441 19301 19302 28
15442 19301 19303 28
15443 19301 19304 28
15444 19301 19305 28
15445 19306 19307 28
15446 19306 19308 28
15447 19306 19309 28
15448 19306 19310 28
15449 19311 19312 28
15450 19311 19313 28
15451 19311 19314 28
15452 19311 19315 28
15453 19316 19317 28
15454 19316 19318 28
15455 19316 19319 28
15456 19316 19320 28
15457 19321 19322 28
15458 19321 19323 28
15459 19321 19324 28
15460 19321 19325 28
15461 19326 19327 28
15462 19326 19328 28
15463 19326 19329 28
15464 19326 19330 28
15465 19331 19332 28
15466 19331 19333 28
15467 19331 19334 28
15468 19331 19335 28
15469 19336 19337 28
15470 19336 19338 28
15471 19336 19339 28
15472 19336 19340 28
15473 19341 19342 28
15474 19341 19343 28
15475 19341 19344 28
15476 19341 19345 28
15477 19346 19347 28
15478 19346 19348 28
15479 19346 19349 28
15480 19346 19350 28
15481 19351 19352 28
15482 19351 19353 28
15483 19351 19354 28
15484 19351 19355 28
15485 19356 19357 28
15486 19356 19358 28
15487 19356 19359 28
15488 19356 19360 28
15489 19361 19362 28
15490 19361 19363 28
15491 19361 19364 28
15492 19361 19365 28
15493 19366 19367 28
15494 19366 19368 28
15495 19366 19369 28
15496 19366 19370 28
15497 19371 19372 28
15498 19371 19373 28
15499 19371 19374 28
15500 19371 19375 28
15501 19376 19377 28
15502 19376 19378 28
15503 19376 19379 28
15504 19376 19380 28
15505 19381 19382 28
15506 19381 19383 28
15507 19381 19384 28
15508 19381 19385 28
15509 19386 19387 28
15510 19386 19388 28
15511 19386 19389 28
15512 19386 19390 28
15513 19391 19392 28
15514 19391 19393 28
15515 19391 19394 28
15516 19391 19395 28
15517 19396 19397 28
15518 19396 19398 28
15519 19396 19399 28
15520 19396 19400 28
15521 19401 19402 28
15522 19401 19403 28
15523 19401 19404 28
15524 19401 19405 28
15525 19406 19407 28
15526 19406 19408 28
15527 19406 19409 28
15528 19406 19410 28
15529 19411 19412 28
15530 19411 19413 28
15531 19411 19414 28
15532 19411 19415 28
15533 19416 19417 28
15534 19416 19418 28
15535 19416 19419 28
15536 19416 19420 28
15537 19421 19422 28
15538 19421 19423 28
15539 19421 19424 28
15540 19421 19425 28
15541 19426 19427 28
15542 19426 19428 28
15543 19426 19429 28
15544 19426 19430 28
15545 19431 19432 28
15546 19431 19433 28
15547 19431 19434 28
15548 19431 19435 28
15549 19436 19437 28
15550 19436 19438 28
15551 19436 19439 28
15552 19436 19440 28
15553 19441 19442 28
15554 19441 19443 28
15555 19441 19444 28
15556 19441 19445 28
15557 19446 19447 28
15558 19446 19448 28
15559 19446 19449 28
15560 19446 19450 28
15561 19451 19452 28
15562 19451 19453 28
15563 19451 19454 28
15564 19451 19455 28
15565 19456 19457 28
15566 19456 19458 28
15567 19456 19459 28
15568 19456 19460 28
15569 19461 19462 28
15570 19461 19463 28
15571 19461 19464 28
15572 19461 19465 28
15573 19466 19467 28
15574 19466 19468 28
15575 19466 19469 28
15576 19466 19470 28
15577 19471 19472 28
15578 19471 19473 28
15579 19471 19474 28
15580 19471 19475 28
15581 19476 19477 28
15582 19476 19478 28
15583 19476 19479 28
15584 19476 19480 28
15585 19481 19482 28
15586 19481 19483 28
15587 19481 19484 28
15588 19481 19485 28
15589 19486 19487 28
15590 19486 19488 28
15591 19486 19489 28
15592 19486 19490 28
15593 19491 19492 28
15594 19491 19493 28
15595 19491 19494 28
15596 19491 19495 28
15597 19496 19497 28
15598 19496 19498 28
15599 19496 19499 28
15600 19496 19500 28
15601 19501 19502 28
15602 19501 19503 28
15603 19501 19504 28
15604 19501 19505 28
15605 19506 19507 28
15606 19506 19508 28
15607 19506 19509 28
15608 19506 19510 28
15609 19511 19512 28
15610 19511 19513 28
15611 19511 19514 28
15612 19511 19515 28
15613 19516 19517 28
15614 19516 19518 28
15615 19516 19519 28
15616 19516 19520 28
15617 19521 19522 28
15618 19521 19523 28
15619 19521 19524 28
15620 19521 19525 28
15621 19526 19527 28
15622 19526 19528 28
15623 19526 19529 28
15624 19526 19530 28
15625 19531 19532 28
15626 19531 19533 28
15627 19531 19534 28
15628 19531 19535 28
15629 19536 19537 28
15630 19536 19538 28
15631 19536 19539 28
15632 19536 19540 28
15633 19541 19542 28
15634 19541 19543 28
15635 19541 19544 28
15636 19541 19545 28
15637 19546 19547 28
15638 19546 19548 28
15639 19546 19549 28
15640 19546 19550 28
15641 19551 19552 28
15642 19551 19553 28
15643 19551 19554 28
15644 19551 19555 28
15645 19556 19557 28
15646 19556 19558 28
15647 19556 19559 28
15648 19556 19560 28
15649 19561 19562 28
15650 19561 19563 28
15651 19561 19564 28
15652 19561 19565 28
15653 19566 19567 28
15654 19566 19568 28
15655 19566 19569 28
15656 19566 19570 28
15657 19571 19572 28
15658 19571 19573 28
15659 19571 19574 28
15660 19571 19575 28
15661 19576 19577 28
15662 19576 19578 28
15663 19576 19579 28
15664 19576 19580 28
15665 19581 19582 28
15666 19581 19583 28
15667 19581 19584 28
15668 19581 19585 28
15669 19586 19587 28
15670 19586 19588 28
15671 19586 19589 28
15672 19586 19590 28
15673 19591 19592 28
15674 19591 19593 28
15675 19591 19594 28
15676 19591 19595 28
15677 19596 19597 28
15678 19596 19598 28
15679 19596 19599 28
15680 19596 19600 28
15681 19601 19602 28
15682 19601 19603 28
15683 19601 19604 28
15684 19601 19605 28
15685 19606 19607 28
15686 19606 19608 28
15687 19606 19609 28
15688 19606 19610 28
15689 19611 19612 28
15690 19611 19613 28
15691 19611 19614 28
15692 19611 19615 28
15693 19616 19617 28
15694 19616 19618 28
15695 19616 19619 28
15696 19616 19620 28
15697 19621 19622 28
15698 19621 19623 28
15699 19621 19624 28
15700 19621 19625 28
15701 19626 19627 28
15702 19626 19628 28
15703 19626 19629 28
15704 19626 19630 28
15705 19631 19632 28
15706 19631 19633 28
15707 19631 19634 28
15708 19631 19635 28
15709 19636 19637 28
15710 19636 19638 28
15711 19636 19639 28
15712 19636 19640 28
15713 19641 19642 28
15714 19641 19643 28
15715 19641 19644 28
15716 19641 19645 28
15717 19646 19647 28
15718 19646 19648 28
15719 19646 19649 28
15720 19646 19650 28
15721 19651 19652 28
15722 19651 19653 28
15723 19651 19654 28
15724 19651 19655 28
15725 19656 19657 28
15726 19656 19658 28
15727 19656 19659 28
15728 19656 19660 28
15729 19661 19662 28
15730 19661 19663 28
15731 19661 19664 28
15732 19661 19665 28
15733 19666 19667 28
15734 19666 19668 28
15735 19666 19669 28
15736 19666 19670 28
15737 19671 19672 28
15738 19671 19673 28
15739 19671 19674 28
15740 19671 19675 28
15741 19676 19677 28
15742 19676 19678 28
15743 19676 19679 28
15744 19676 19680 28
15745 19681 19682 28
15746 19681 19683 28
15747 19681 19684 28
15748 19681 19685 28
15749 19686 19687 28
15750 19686 19688 28
15751 19686 19689 28
15752 19686 19690 28
15753 19691 19692 28
15754 19691 19693 28
15755 19691 19694 28
15756 19691 19695 28
15757 19696 19697 28
15758 19696 19698 28
15759 19696 19699 28
15760 19696 19700 28
15761 19701 19702 28
15762 19701 19703 28
15763 19701 19704 28
15764 19701 19705 28
15765 19706 19707 28
15766 19706 19708 28
15767 19706 19709 28
15768 19706 19710 28
15769 19711 19712 28
15770 19711 19713 28
15771 19711 19714 28
15772 19711 19715 28
15773 19716 19717 28
15774 19716 19718 28
15775 19716 19719 28
15776 19716 19720 28
15777 19721 19722 28
15778 19721 19723 28
15779 19721 19724 28
15780 19721 19725 28
15781 19726 19727 28
15782 19726 19728 28
15783 19726 19729 28
15784 19726 19730 28
15785 19731 19732 28
15786 19731 19733 28
15787 19731 19734 28
15788 19731 19735 28
15789 19736 19737 28
15790 19736 19738 28
15791 19736 19739 28
15792 19736 19740 28
15793 19741 19742 28
15794 19741 19743 28
15795 19741 19744 28
15796 19741 19745 28
15797 19746 19747 28
15798 19746 19748 28
15799 19746 19749 28
15800 19746 19750 28
15801 19751 19752 28
15802 19751 19753 28
15803 19751 19754 28
15804 19751 19755 28
15805 19756 19757 28
15806 19756 19758 28
15807 19756 19759 28
15808 19756 19760 28
15809 19761 19762 28
15810 19761 19763 28
15811 19761 19764 28
15812 19761 19765 28
15813 19766 19767 28
15814 19766 19768 28
15815 19766 19769 28
15816 19766 19770 28
15817 19771 19772 28
15818 19771 19773 28
15819 19771 19774 28
15820 19771 19775 28
15821 19776 19777 28
15822 19776 19778 28
15823 19776 19779 28
15824 19776 19780 28
15825 19781 19782 28
15826 19781 19783 28
15827 19781 19784 28
15828 19781 19785 28
15829 19786 19787 28
15830 19786 19788 28
15831 19786 19789 28
15832 19786 19790 28
15833 19791 19792 28
15834 19791 19793 28
15835 19791 19794 28
15836 19791 19795 28
15837 19796 19797 28
15838 19796 19798 28
15839 19796 19799 28
15840 19796 19800 28
15841 19801 19802 28
15842 19801 19803 28
15843 19801 19804 28
15844 19801 19805 28
15845 19806 19807 28
15846 19806 19808 28
15847 19806 19809 28
15848 19806 19810 28
15849 19811 19812 28
15850 19811 19813 28
15851 19811 19814 28
15852 19811 19815 28
15853 19816 19817 28
15854 19816 19818 28
15855 19816 19819 28
15856 19816 19820 28
15857 19821 19822 28
15858 19821 19823 28
15859 19821 19824 28
15860 19821 19825 28
15861 19826 19827 28
15862 19826 19828 28
15863 19826 19829 28
15864 19826 19830 28
15865 19831 19832 28
15866 19831 19833 28
15867 19831 19834 28
15868 19831 19835 28
15869 19836 19837 28
15870 19836 19838 28
15871 19836 19839 28
15872 19836 19840 28
15873 19841 19842 28
15874 19841 19843 28
15875 19841 19844 28
15876 19841 19845 28
15877 19846 19847 28
15878 19846 19848 28
15879 19846 19849 28
15880 19846 19850 28
15881 19851 19852 28
15882 19851 19853 28
15883 19851 19854 28
15884 19851 19855 28
15885 19856 19857 28
15886 19856 19858 28
15887 19856 19859 28
15888 19856 19860 28
15889 19861 19862 28
15890 19861 19863 28
15891 19861 19864 28
15892 19861 19865 28
15893 19866 19867 28
15894 19866 19868 28
15895 19866 19869 28
15896 19866 19870 28
15897 19871 19872 28
15898 19871 19873 28
15899 19871 19874 28
15900 19871 19875 28
15901 19876 19877 28
15902 19876 19878 28
15903 19876 19879 28
15904 19876 19880 28
15905 19881 19882 28
15906 19881 19883 28
15907 19881 19884 28
15908 19881 19885 28
15909 19886 19887 28
15910 19886 19888 28
15911 19886 19889 28
15912 19886 19890 28
15913 19891 19892 28
15914 19891 19893 28
15915 19891 19894 28
15916 19891 19895 28
15917 19896 19897 28
15918 19896 19898 28
15919 19896 19899 28
15920 19896 19900 28
15921 19901 19902 28
15922 19901 19903 28
15923 19901 19904 28
15924 19901 19905 28
15925 19906 19907 28
15926 19906 19908 28
15927 19906 19909 28
15928 19906 19910 28
15929 19911 19912 28
15930 19911 19913 28
15931 19911 19914 28
15932 19911 19915 28
15933 19916 19917 28
15934 19916 19918 28
15935 19916 19919 28
15936 19916 19920 28
15937 19921 19922 28
15938 19921 19923 28
15939 19921 19924 28
15940 19921 19925 28
15941 19926 19927 28
15942 19926 19928 28
15943 19926 19929 28
15944 19926 19930 28
15945 19931 19932 28
15946 19931 19933 28
15947 19931 19934 28
15948 19931 19935 28
15949 19936 19937 28
15950 19936 19938 28
15951 19936 19939 28
15952 19936 19940 28
15953 19941 19942 28
15954 19941 19943 28
15955 19941 19944 28
15956 19941 19945 28
15957 19946 19947 28
15958 19946 19948 28
15959 19946 19949 28
15960 19946 19950 28
15961 19951 19952 28
15962 19951 19953 28
15963 19951 19954 28
15964 19951 19955 28
15965 19956 19957 28
15966 19956 19958 28
15967 19956 19959 28
15968 19956 19960 28
15969 19961 19962 28
15970 19961 19963 28
15971 19961 19964 28
15972 19961 19965 28
15973 19966 19967 28
15974 19966 19968 28
15975 19966 19969 28
15976 19966 19970 28
15977 19971 19972 28
15978 19971 19973 28
15979 19971 19974 28
15980 19971 19975 28
15981 19976 19977 28
15982 19976 19978 28
15983 19976 19979 28
15984 19976 19980 28
15985 19981 19982 28
15986 19981 19983 28
15987 19981 19984 28
15988 19981 19985 28
15989 19986 19987 28
15990 19986 19988 28
15991 19986 19989 28
15992 19986 19990 28
15993 19991 19992 28
15994 19991 19993 28
15995 19991 19994 28
15996 19991 19995 28
15997 19996 19997 28
15998 19996 19998 28
15999 19996 19999 28
16000 19996 20000 28
16001 20001 20002 28
16002 20001 20003 28
16003 20001 20004 28
16004 20001 20005 28
16005 20006 20007 28
16006 20006 20008 28
16007 20006 20009 28
16008 20006 20010 28
16009 20011 20012 28
16010 20011 20013 28
16011 20011 20014 28
16012 20011 20015 28
16013 20016 20017 28
16014 20016 20018 28
16015 20016 20019 28
16016 20016 20020 28
16017 20021 20022 28
16018 20021 20023 28
16019 20021 20024 28
16020 20021 20025 28
16021 20026 20027 28
16022 20026 20028 28
16023 20026 20029 28
16024 20026 20030 28
16025 20031 20032 28
16026 20031 20033 28
16027 20031 20034 28
16028 20031 20035 28
16029 20036 20037 28
16030 20036 20038 28
16031 20036 20039 28
16032 20036 20040 28
16033 20041 20042 28
16034 20041 20043 28
16035 20041 20044 28
16036 20041 20045 28
16037 20046 20047 28
16038 20046 20048 28
16039 20046 20049 28
16040 20046 20050 28
16041 20051 20052 28
16042 20051 20053 28
16043 20051 20054 28
16044 20051 20055 28
16045 20056 20057 28
16046 20056 20058 28
16047 20056 20059 28
16048 20056 20060 28
16049 20061 20062 28
16050 20061 20063 28
16051 20061 20064 28
16052 20061 20065 28
16053 20066 20067 28
16054 20066 20068 28
16055 20066 20069 28
16056 20066 20070 28
16057 20071 20072 28
16058 20071 20073 28
16059 20071 20074 28
16060 20071 20075 28
16061 20076 20077 28
16062 20076 20078 28
16063 20076 20079 28
16064 20076 20080 28
16065 20081 20082 28
16066 20081 20083 28
16067 20081 20084 28
16068 20081 20085 28
16069 20086 20087 28
16070 20086 20088 28
16071 20086 20089 28
16072 20086 20090 28
16073 20091 20092 28
16074 20091 20093 28
16075 20091 20094 28
16076 20091 20095 28
16077 20096 20097 28
16078 20096 20098 28
16079 20096 20099 28
16080 20096 20100 28
16081 20101 20102 28
16082 20101 20103 28
16083 20101 20104 28
16084 20101 20105 28
16085 20106 20107 28
16086 20106 20108 28
16087 20106 20109 28
16088 20106 20110 28
16089 20111 20112 28
16090 20111 20113 28
16091 20111 20114 28
16092 20111 20115 28
16093 20116 20117 28
16094 20116 20118 28
16095 20116 20119 28
16096 20116 20120 28
16097 20121 20122 28
16098 20121 20123 28
16099 20121 20124 28
16100 20121 20125 28
16101 20126 20127 28
16102 20126 20128 28
16103 20126 20129 28
16104 20126 20130 28
16105 20131 20132 28
16106 20131 20133 28
16107 20131 20134 28
16108 20131 20135 28
16109 20136 20137 28
16110 20136 20138 28
16111 20136 20139 28
16112 20136 20140 28
16113 20141 20142 28
16114 20141 20143 28
16115 20141 20144 28
16116 20141 20145 28
16117 20146 20147 28
16118 20146 20148 28
16119 20146 20149 28
16120 20146 20150 28
16121 20151 20152 28
16122 20151 20153 28
16123 20151 20154 28
16124 20151 20155 28
16125 20156 20157 28
16126 20156 20158 28
16127 20156 20159 28
16128 20156 20160 28
16129 20161 20162 28
16130 20161 20163 28
16131 20161 20164 28
16132 20161 20165 28
16133 20166 20167 28
16134 20166 20168 28
16135 20166 20169 28
16136 20166 20170 28
16137 20171 20172 28
16138 20171 20173 28
16139 20171 20174 28
16140 20171 20175 28
16141 20176 20177 28
16142 20176 20178 28
16143 20176 20179 28
16144 20176 20180 28
16145 20181 20182 28
16146 20181 20183 28
16147 20181 20184 28
16148 20181 20185 28
16149 20186 20187 28
16150 20186 20188 28
16151 20186 20189 28
16152 20186 20190 28
16153 20191 20192 28
16154 20191 20193 28
16155 20191 20194 28
16156 20191 20195 28
16157 20196 20197 28
16158 20196 20198 28
16159 20196 20199 28
16160 20196 20200 28
16161 20201 20202 28
16162 20201 20203 28
16163 20201 20204 28
16164 20201 20205 28
16165 20206 20207 28
16166 20206 20208 28
16167 20206 20209 28
16168 20206 20210 28
16169 20211 20212 28
16170 20211 20213 28
16171 20211 20214 28
16172 20211 20215 28
16173 20216 20217 28
16174 20216 20218 28
16175 20216 20219 28
16176 20216 20220 28
16177 20221 20222 28
16178 20221 20223 28
16179 20221 20224 28
16180 20221 20225 28
16181 20226 20227 28
16182 20226 20228 28
16183 20226 20229 28
16184 20226 20230 28
16185 20231 20232 28
16186 20231 20233 28
16187 20231 20234 28
16188 20231 20235 28
16189 20236 20237 28
16190 20236 20238 28
16191 20236 20239 28
16192 20236 20240 28
16193 20241 20242 28
16194 20241 20243 28
16195 20241 20244 28
16196 20241 20245 28
16197 20246 20247 28
16198 20246 20248 28
16199 20246 20249 28
16200 20246 20250 28
16201 20251 20252 28
16202 20251 20253 28
16203 20251 20254 28
16204 20251 20255 28
16205 20256 20257 28
16206 20256 20258 28
16207 20256 20259 28
16208 20256 20260 28
16209 20261 20262 28
16210 20261 20263 28
16211 20261 20264 28
16212 20261 20265 28
16213 20266 20267 28
16214 20266 20268 28
16215 20266 20269 28
16216 20266 20270 28
16217 20271 20272 28
16218 20271 20273 28
16219 20271 20274 28
16220 20271 20275 28
16221 20276 20277 28
16222 20276 20278 28
16223 20276 20279 28
16224 20276 20280 28
16225 20281 20282 28
16226 20281 20283 28
16227 20281 20284 28
16228 20281 20285 28
16229 20286 20287 28
16230 20286 20288 28
16231 20286 20289 28
16232 20286 20290 28
16233 20291 20292 28
16234 20291 20293 28
16235 20291 20294 28
16236 20291 20295 28
16237 20296 20297 28
16238 20296 20298 28
16239 20296 20299 28
16240 20296 20300 28
16241 20301 20302 28
16242 20301 20303 28
16243 20301 20304 28
16244 20301 20305 28
16245 20306 20307 28
16246 20306 20308 28
16247 20306 20309 28
16248 20306 20310 28
16249 20311 20312 28
16250 20311 20313 28
16251 20311 20314 28
16252 20311 20315 28
16253 20316 20317 28
16254 20316 20318 28
16255 20316 20319 28
16256 20316 20320 28
16257 20321 20322 28
16258 20321 20323 28
16259 20321 20324 28
16260 20321 20325 28
16261 20326 20327 28
16262 20326 20328 28
16263 20326 20329 28
16264 20326 20330 28
16265 20331 20332 28
16266 20331 20333 28
16267 20331 20334 28
16268 20331 20335 28
16269 20336 20337 28
16270 20336 20338 28
16271 20336 20339 28
16272 20336 20340 28
16273 20341 20342 28
16274 20341 20343 28
16275 20341 20344 28
16276 20341 20345 28
16277 20346 20347 28
16278 20346 20348 28
16279 20346 20349 28
16280 20346 20350 28
16281 20351 20352 28
16282 20351 20353 28
16283 20351 20354 28
16284 20351 20355 28
16285 20356 20357 28
16286 20356 20358 28
16287 20356 20359 28
16288 20356 20360 28
16289 20361 20362 28
16290 20361 20363 28
16291 20361 20364 28
16292 20361 20365 28
16293 20366 20367 28
16294 20366 20368 28
16295 20366 20369 28
16296 20366 20370 28
16297 20371 20372 28
16298 20371 20373 28
16299 20371 20374 28
16300 20371 20375 28
16301 20376 20377 28
16302 20376 20378 28
16303 20376 20379 28
16304 20376 20380 28
16305 20381 20382 28
16306 20381 20383 28
16307 20381 20384 28
16308 20381 20385 28
16309 20386 20387 28
16310 20386 20388 28
16311 20386 20389 28
16312 20386 20390 28
16313 20391 20392 28
16314 20391 20393 28
16315 20391 20394 28
16316 20391 20395 28
16317 20396 20397 28
16318 20396 20398 28
16319 20396 20399 28
16320 20396 20400 28
16321 20401 20402 28
16322 20401 20403 28
16323 20401 20404 28
16324 20401 20405 28
16325 20406 20407 28
16326 20406 20408 28
16327 20406 20409 28
16328 20406 20410 28
16329 20411 20412 28
16330 20411 20413 28
16331 20411 20414 28
16332 20411 20415 28
16333 20416 20417 28
16334 20416 20418 28
16335 20416 20419 28
16336 20416 20420 28
16337 20421 20422 28
16338 20421 20423 28
16339 20421 20424 28
16340 20421 20425 28
16341 20426 20427 28
16342 20426 20428 28
16343 20426 20429 28
16344 20426 20430 28
16345 20431 20432 28
16346 20431 20433 28
16347 20431 20434 28
16348 20431 20435 28
16349 20436 20437 28
16350 20436 20438 28
16351 20436 20439 28
16352 20436 20440 28
16353 20441 20442 28
16354 20441 20443 28
16355 20441 20444 28
16356 20441 20445 28
16357 20446 20447 28
16358 20446 20448 28
16359 20446 20449 28
16360 20446 20450 28
16361 20451 20452 28
16362 20451 20453 28
16363 20451 20454 28
16364 20451 20455 28
16365 20456 20457 28
16366 20456 20458 28
16367 20456 20459 28
16368 20456 20460 28
16369 20461 20462 28
16370 20461 20463 28
16371 20461 20464 28
16372 20461 20465 28
16373 20466 20467 28
16374 20466 20468 28
16375 20466 20469 28
16376 20466 20470 28
16377 20471 20472 28
16378 20471 20473 28
16379 20471 20474 28
16380 20471 20475 28
16381 20476 20477 28
16382 20476 20478 28
16383 20476 20479 28
16384 20476 20480 28
16385 20481 20482 28
16386 20481 20483 28
16387 20481 20484 28
16388 20481 20485 28
16389 20486 20487 28
16390 20486 20488 28
16391 20486 20489 28
16392 20486 20490 28
16393 20491 20492 28
16394 20491 20493 28
16395 20491 20494 28
16396 20491 20495 28
16397 20496 20497 28
16398 20496 20498 28
16399 20496 20499 28
16400 20496 20500 28
16401 20501 20502 28
16402 20501 20503 28
16403 20501 20504 28
16404 20501 20505 28
16405 20506 20507 28
16406 20506 20508 28
16407 20506 20509 28
16408 20506 20510 28
16409 20511 20512 28
16410 20511 20513 28
16411 20511 20514 28
16412 20511 20515 28
16413 20516 20517 28
16414 20516 20518 28
16415 20516 20519 28
16416 20516 20520 28
16417 20521 20522 28
16418 20521 20523 28
16419 20521 20524 28
16420 20521 20525 28
16421 20526 20527 28
16422 20526 20528 28
16423 20526 20529 28
16424 20526 20530 28
16425 20531 20532 28
16426 20531 20533 28
16427 20531 20534 28
16428 20531 20535 28
16429 20536 20537 28
16430 20536 20538 28
16431 20536 20539 28
16432 20536 20540 28
16433 20541 20542 28
16434 20541 20543 28
16435 20541 20544 28
16436 20541 20545 28
16437 20546 20547 28
16438 20546 20548 28
16439 20546 20549 28
16440 20546 20550 28
16441 20551 20552 28
16442 20551 20553 28
16443 20551 20554 28
16444 20551 20555 28
16445 20556 20557 28
16446 20556 20558 28
16447 20556 20559 28
16448 20556 20560 28
16449 20561 20562 28
16450 20561 20563 28
16451 20561 20564 28
16452 20561 20565 28
16453 20566 20567 28
16454 20566 20568 28
16455 20566 20569 28
16456 20566 20570 28
16457 20571 20572 28
16458 20571 20573 28
16459 20571 20574 28
16460 20571 20575 28
16461 20576 20577 28
16462 20576 20578 28
16463 20576 20579 28
16464 20576 20580 28
16465 20581 20582 28
16466 20581 20583 28
16467 20581 20584 28
16468 20581 20585 28
16469 20586 20587 28
16470 20586 20588 28
16471 20586 20589 28
16472 20586 20590 28
16473 20591 20592 28
16474 20591 20593 28
16475 20591 20594 28
16476 20591 20595 28
16477 20596 20597 28
16478 20596 20598 28
16479 20596 20599 28
16480 20596 20600 28
16481 20601 20602 28
16482 20601 20603 28
16483 20601 20604 28
16484 20601 20605 28
16485 20606 20607 28
16486 20606 20608 28
16487 20606 20609 28
16488 20606 20610 28
16489 20611 20612 28
16490 20611 20613 28
16491 20611 20614 28
16492 20611 20615 28
16493 20616 20617 28
16494 20616 20618 28
16495 20616 20619 28
16496 20616 20620 28
16497 20621 20622 28
16498 20621 20623 28
16499 20621 20624 28
16500 20621 20625 28
16501 20626 20627 28
16502 20626 20628 28
16503 20626 20629 28
16504 20626 20630 28
16505 20631 20632 28
16506 20631 20633 28
16507 20631 20634 28
16508 20631 20635 28
16509 20636 20637 28
16510 20636 20638 28
16511 20636 20639 28
16512 20636 20640 28
16513 20641 20642 28
16514 20641 20643 28
16515 20641 20644 28
16516 20641 20645 28
16517 20646 20647 28
16518 20646 20648 28
16519 20646 20649 28
16520 20646 20650 28
16521 20651 20652 28
16522 20651 20653 28
16523 20651 20654 28
16524 20651 20655 28
16525 20656 20657 28
16526 20656 20658 28
16527 20656 20659 28
16528 20656 20660 28
16529 20661 20662 28
16530 20661 20663 28
16531 20661 20664 28
16532 20661 20665 28
16533 20666 20667 28
16534 20666 20668 28
16535 20666 20669 28
16536 20666 20670 28
16537 20671 20672 28
16538 20671 20673 28
16539 20671 20674 28
16540 20671 20675 28
16541 20676 20677 28
16542 20676 20678 28
16543 20676 20679 28
16544 20676 20680 28
16545 20681 20682 28
16546 20681 20683 28
16547 20681 20684 28
16548 20681 20685 28
16549 20686 20687 28
16550 20686 20688 28
16551 20686 20689 28
16552 20686 20690 28
16553 20691 20692 28
16554 20691 20693 28
16555 20691 20694 28
16556 20691 20695 28
16557 20696 20697 28
16558 20696 20698 28
16559 20696 20699 28
16560 20696 20700 28
16561 20701 20702 28
16562 20701 20703 28
16563 20701 20704 28
16564 20701 20705 28
16565 20706 20707 28
16566 20706 20708 28
16567 20706 20709 28
16568 20706 20710 28
16569 20711 20712 28
16570 20711 20713 28
16571 20711 20714 28
16572 20711 20715 28
16573 20716 20717 28
16574 20716 20718 28
16575 20716 20719 28
16576 20716 20720 28
16577 20721 20722 28
16578 20721 20723 28
16579 20721 20724 28
16580 20721 20725 28
16581 20726 20727 28
16582 20726 20728 28
16583 20726 20729 28
16584 20726 20730 28
16585 20731 20732 28
16586 20731 20733 28
16587 20731 20734 28
16588 20731 20735 28
16589 20736 20737 28
16590 20736 20738 28
16591 20736 20739 28
16592 20736 20740 28
16593 20741 20742 28
16594 20741 20743 28
16595 20741 20744 28
16596 20741 20745 28
16597 20746 20747 28
16598 20746 20748 28
16599 20746 20749 28
16600 20746 20750 28
16601 20751 20752 28
16602 20751 20753 28
16603 20751 20754 28
16604 20751 20755 28
16605 20756 20757 28
16606 20756 20758 28
16607 20756 20759 28
16608 20756 20760 28
16609 20761 20762 28
16610 20761 20763 28
16611 20761 20764 28
16612 20761 20765 28
16613 20766 20767 28
16614 20766 20768 28
16615 20766 20769 28
16616 20766 20770 28
16617 20771 20772 28
16618 20771 20773 28
16619 20771 20774 28
16620 20771 20775 28
16621 20776 20777 28
16622 20776 20778 28
16623 20776 20779 28
16624 20776 20780 28
16625 20781 20782 28
16626 20781 20783 28
16627 20781 20784 28
16628 20781 20785 28
16629 20786 20787 28
16630 20786 20788 28
16631 20786 20789 28
16632 20786 20790 28
16633 20791 20792 28
16634 20791 20793 28
16635 20791 20794 28
16636 20791 20795 28
16637 20796 20797 28
16638 20796 20798 28
16639 20796 20799 28
16640 20796 20800 28
16641 20801 20802 28
16642 20801 20803 28
16643 20801 20804 28
16644 20801 20805 28
16645 20806 20807 28
16646 20806 20808 28
16647 20806 20809 28
16648 20806 20810 28
16649 20811 20812 28
16650 20811 20813 28
16651 20811 20814 28
16652 20811 20815 28
16653 20816 20817 28
16654 20816 20818 28
16655 20816 20819 28
16656 20816 20820 28
16657 20821 20822 28
16658 20821 20823 28
16659 20821 20824 28
16660 20821 20825 28
16661 20826 20827 28
16662 20826 20828 28
16663 20826 20829 28
16664 20826 20830 28
16665 20831 20832 28
16666 20831 20833 28
16667 20831 20834 28
16668 20831 20835 28
16669 20836 20837 28
16670 20836 20838 28
16671 20836 20839 28
16672 20836 20840 28
16673 20841 20842 28
16674 20841 20843 28
16675 20841 20844 28
16676 20841 20845 28
16677 20846 20847 28
16678 20846 20848 28
16679 20846 20849 28
16680 20846 20850 28
16681 20851 20852 28
16682 20851 20853 28
16683 20851 20854 28
16684 20851 20855 28
16685 20856 20857 28
16686 20856 20858 28
16687 20856 20859 28
16688 20856 20860 28
16689 20861 20862 28
16690 20861 20863 28
16691 20861 20864 28
16692 20861 20865 28
16693 20866 20867 28
16694 20866 20868 28
16695 20866 20869 28
16696 20866 20870 28
16697 20871 20872 28
16698 20871 20873 28
16699 20871 20874 28
16700 20871 20875 28
16701 20876 20877 28
16702 20876 20878 28
16703 20876 20879 28
16704 20876 20880 28
16705 20881 20882 28
16706 20881 20883 28
16707 20881 20884 28
16708 20881 20885 28
16709 20886 20887 28
16710 20886 20888 28
16711 20886 20889 28
16712 20886 20890 28
16713 20891 20892 28
16714 20891 20893 28
16715 20891 20894 28
16716 20891 20895 28
16717 20896 20897 28
16718 20896 20898 28
16719 20896 20899 28
16720 20896 20900 28
16721 20901 20902 28
16722 20901 20903 28
16723 20901 20904 28
16724 20901 20905 28
16725 20906 20907 28
16726 20906 20908 28
16727 20906 20909 28
16728 20906 20910 28
16729 20911 20912 28
16730 20911 20913 28
16731 20911 20914 28
16732 20911 20915 28
16733 20916 20917 28
16734 20916 20918 28
16735 20916 20919 28
16736 20916 20920 28
16737 20921 20922 28
16738 20921 20923 28
16739 20921 20924 28
16740 20921 20925 28
16741 20926 20927 28
16742 20926 20928 28
16743 20926 20929 28
16744 20926 20930 28
16745 20931 20932 28
16746 20931 20933 28
16747 20931 20934 28
16748 20931 20935 28
16749 20936 20937 28
16750 20936 20938 28
16751 20936 20939 28
16752 20936 20940 28
16753 20941 20942 28
16754 20941 20943 28
16755 20941 20944 28
16756 20941 20945 28
16757 20946 20947 28
16758 20946 20948 28
16759 20946 20949 28
16760 20946 20950 28
16761 20951 20952 28
16762 20951 20953 28
16763 20951 20954 28
16764 20951 20955 28
16765 20956 20957 28
16766 20956 20958 28
16767 20956 20959 28
16768 20956 20960 28
16769 20961 20962 28
16770 20961 20963 28
16771 20961 20964 28
16772 20961 20965 28
16773 20966 20967 28
16774 20966 20968 28
16775 20966 20969 28
16776 20966 20970 28
16777 20971 20972 28
16778 20971 20973 28
16779 20971 20974 28
16780 20971 20975 28
16781 20976 20977 28
16782 20976 20978 28
16783 20976 20979 28
16784 20976 20980 28
16785 20981 20982 28
16786 20981 20983 28
16787 20981 20984 28
16788 20981 20985 28
16789 20986 20987 28
16790 20986 20988 28
16791 20986 20989 28
16792 20986 20990 28
16793 20991 20992 28
16794 20991 20993 28
16795 20991 20994 28
16796 20991 20995 28
16797 20996 20997 28
16798 20996 20998 28
16799 20996 20999 28
16800 20996 21000 28
16801 21001 21002 28
16802 21001 21003 28
16803 21001 21004 28
16804 21001 21005 28
16805 21006 21007 28
16806 21006 21008 28
16807 21006 21009 28
16808 21006 21010 28
16809 21011 21012 28
16810 21011 21013 28
16811 21011 21014 28
16812 21011 21015 28
16813 21016 21017 28
16814 21016 21018 28
16815 21016 21019 28
16816 21016 21020 28
16817 21021 21022 28
16818 21021 21023 28
16819 21021 21024 28
16820 21021 21025 28
16821 21026 21027 28
16822 21026 21028 28
16823 21026 21029 28
16824 21026 21030 28
16825 21031 21032 28
16826 21031 21033 28
16827 21031 21034 28
16828 21031 21035 28
16829 21036 21037 28
16830 21036 21038 28
16831 21036 21039 28
16832 21036 21040 28
16833 21041 21042 28
16834 21041 21043 28
16835 21041 21044 28
16836 21041 21045 28
16837 21046 21047 28
16838 21046 21048 28
16839 21046 21049 28
16840 21046 21050 28
16841 21051 21052 28
16842 21051 21053 28
16843 21051 21054 28
16844 21051 21055 28
16845 21056 21057 28
16846 21056 21058 28
16847 21056 21059 28
16848 21056 21060 28
16849 21061 21062 28
16850 21061 21063 28
16851 21061 21064 28
16852 21061 21065 28
16853 21066 21067 28
16854 21066 21068 28
16855 21066 21069 28
16856 21066 21070 28
16857 21071 21072 28
16858 21071 21073 28
16859 21071 21074 28
16860 21071 21075 28
16861 21076 21077 28
16862 21076 21078 28
16863 21076 21079 28
16864 21076 21080 28
16865 21081 21082 28
16866 21081 21083 28
16867 21081 21084 28
16868 21081 21085 28
16869 21086 21087 28
16870 21086 21088 28
16871 21086 21089 28
16872 21086 21090 28
16873 21091 21092 28
16874 21091 21093 28
16875 21091 21094 28
16876 21091 21095 28
16877 21096 21097 28
16878 21096 21098 28
16879 21096 21099 28
16880 21096 21100 28
16881 21101 21102 28
16882 21101 21103 28
16883 21101 21104 28
16884 21101 21105 28
16885 21106 21107 28
16886 21106 21108 28
16887 21106 21109 28
16888 21106 21110 28
16889 21111 21112 28
16890 21111 21113 28
16891 21111 21114 28
16892 21111 21115 28
16893 21116 21117 28
16894 21116 21118 28
16895 21116 21119 28
16896 21116 21120 28
16897 21121 21122 28
16898 21121 21123 28
16899 21121 21124 28
16900 21121 21125 28
16901 21126 21127 28
16902 21126 21128 28
16903 21126 21129 28
16904 21126 21130 28
16905 21131 21132 28
16906 21131 21133 28
16907 21131 21134 28
16908 21131 21135 28
16909 21136 21137 28
16910 21136 21138 28
16911 21136 21139 28
16912 21136 21140 28
16913 21141 21142 28
16914 21141 21143 28
16915 21141 21144 28
16916 21141 21145 28
16917 21146 21147 28
16918 21146 21148 28
16919 21146 21149 28
16920 21146 21150 28
16921 21151 21152 28
16922 21151 21153 28
16923 21151 21154 28
16924 21151 21155 28
16925 21156 21157 28
16926 21156 21158 28
16927 21156 21159 28
16928 21156 21160 28
16929 21161 21162 28
16930 21161 21163 28
16931 21161 21164 28
16932 21161 21165 28
16933 21166 21167 28
16934 21166 21168 28
16935 21166 21169 28
16936 21166 21170 28
16937 21171 21172 28
16938 21171 21173 28
16939 21171 21174 28
16940 21171 21175 28
16941 21176 21177 28
16942 21176 21178 28
16943 21176 21179 28
16944 21176 21180 28
16945 21181 21182 28
16946 21181 21183 28
16947 21181 21184 28
16948 21181 21185 28
16949 21186 21187 28
16950 21186 21188 28
16951 21186 21189 28
16952 21186 21190 28
16953 21191 21192 28
16954 21191 21193 28
16955 21191 21194 28
16956 21191 21195 28
16957 21196 21197 28
16958 21196 21198 28
16959 21196 21199 28
16960 21196 21200 28
16961 21201 21202 28
16962 21201 21203 28
16963 21201 21204 28
16964 21201 21205 28
16965 21206 21207 28
16966 21206 21208 28
16967 21206 21209 28
16968 21206 21210 28
16969 21211 21212 28
16970 21211 21213 28
16971 21211 21214 28
16972 21211 21215 28
16973 21216 21217 28
16974 21216 21218 28
16975 21216 21219 28
16976 21216 21220 28
16977 21221 21222 28
16978 21221 21223 28
16979 21221 21224 28
16980 21221 21225 28
16981 21226 21227 28
16982 21226 21228 28
16983 21226 21229 28
16984 21226 21230 28
16985 21231 21232 28
16986 21231 21233 28
16987 21231 21234 28
16988 21231 21235 28
16989 21236 21237 28
16990 21236 21238 28
16991 21236 21239 28
16992 21236 21240 28
16993 21241 21242 28
16994 21241 21243 28
16995 21241 21244 28
16996 21241 21245 28
16997 21246 21247 28
16998 21246 21248 28
16999 21246 21249 28
17000 21246 21250 28
17001 21251 21252 28
17002 21251 21253 28
17003 21251 21254 28
17004 21251 21255 28
17005 21256 21257 28
17006 21256 21258 28
17007 21256 21259 28
17008 21256 21260 28
17009 21261 21262 28
17010 21261 21263 28
17011 21261 21264 28
17012 21261 21265 28
17013 21266 21267 28
17014 21266 21268 28
17015 21266 21269 28
17016 21266 21270 28
17017 21271 21272 28
17018 21271 21273 28
17019 21271 21274 28
17020 21271 21275 28
17021 21276 21277 28
17022 21276 21278 28
17023 21276 21279 28
17024 21276 21280 28
17025 21281 21282 28
17026 21281 21283 28
17027 21281 21284 28
17028 21281 21285 28
17029 21286 21287 28
17030 21286 21288 28
17031 21286 21289 28
17032 21286 21290 28
17033 21291 21292 28
17034 21291 21293 28
17035 21291 21294 28
17036 21291 21295 28
17037 21296 21297 28
17038 21296 21298 28
17039 21296 21299 28
17040 21296 21300 28
17041 21301 21302 28
17042 21301 21303 28
17043 21301 21304 28
17044 21301 21305 28
17045 21306 21307 28
17046 21306 21308 28
17047 21306 21309 28
17048 21306 21310 28
17049 21311 21312 28
17050 21311 21313 28
17051 21311 21314 28
17052 21311 21315 28
17053 21316 21317 28
17054 21316 21318 28
17055 21316 21319 28
17056 21316 21320 28
17057 21321 21322 28
17058 21321 21323 28
17059 21321 21324 28
17060 21321 21325 28
17061 21326 21327 28
17062 21326 21328 28
17063 21326 21329 28
17064 21326 21330 28
17065 21331 21332 28
17066 21331 21333 28
17067 21331 21334 28
17068 21331 21335 28
17069 21336 21337 28
17070 21336 21338 28
17071 21336 21339 28
17072 21336 21340 28
17073 21341 21342 28
17074 21341 21343 28
17075 21341 21344 28
17076 21341 21345 28
17077 21346 21347 28
17078 21346 21348 28
17079 21346 21349 28
17080 21346 21350 28
17081 21351 21352 28
17082 21351 21353 28
17083 21351 21354 28
17084 21351 21355 28
17085 21356 21357 28
17086 21356 21358 28
17087 21356 21359 28
17088 21356 21360 28
17089 21361 21362 28
17090 21361 21363 28
17091 21361 21364 28
17092 21361 21365 28
17093 21366 21367 28
17094 21366 21368 28
17095 21366 21369 28
17096 21366 21370 28
17097 21371 21372 28
17098 21371 21373 28
17099 21371 21374 28
17100 21371 21375 28
17101 21376 21377 28
17102 21376 21378 28
17103 21376 21379 28
17104 21376 21380 28
17105 21381 21382 28
17106 21381 21383 28
17107 21381 21384 28
17108 21381 21385 28
17109 21386 21387 28
17110 21386 21388 28
17111 21386 21389 28
17112 21386 21390 28
17113 21391 21392 28
17114 21391 21393 28
17115 21391 21394 28
17116 21391 21395 28
17117 21396 21397 28
17118 21396 21398 28
17119 21396 21399 28
17120 21396 21400 28
17121 21401 21402 28
17122 21401 21403 28
17123 21401 21404 28
17124 21401 21405 28
17125 21406 21407 28
17126 21406 21408 28
17127 21406 21409 28
17128 21406 21410 28
17129 21411 21412 28
17130 21411 21413 28
17131 21411 21414 28
17132 21411 21415 28
17133 21416 21417 28
17134 21416 21418 28
17135 21416 21419 28
17136 21416 21420 28
17137 21421 21422 28
17138 21421 21423 28
17139 21421 21424 28
17140 21421 21425 28
17141 21426 21427 28
17142 21426 21428 28
17143 21426 21429 28
17144 21426 21430 28
17145 21431 21432 28
17146 21431 21433 28
17147 21431 21434 28
17148 21431 21435 28
17149 21436 21437 28
17150 21436 21438 28
17151 21436 21439 28
17152 21436 21440 28
17153 21441 21442 28
17154 21441 21443 28
17155 21441 21444 28
17156 21441 21445 28
17157 21446 21447 28
17158 21446 21448 28
17159 21446 21449 28
17160 21446 21450 28
17161 21451 21452 28
17162 21451 21453 28
17163 21451 21454 28
17164 21451 21455 28
17165 21456 21457 28
17166 21456 21458 28
17167 21456 21459 28
17168 21456 21460 28
17169 21461 21462 28
17170 21461 21463 28
17171 21461 21464 28
17172 21461 21465 28
17173 21466 21467 28
17174 21466 21468 28
17175 21466 21469 28
17176 21466 21470 28
17177 21471 21472 28
17178 21471 21473 28
17179 21471 21474 28
17180 21471 21475 28
17181 21476 21477 28
17182 21476 21478 28
17183 21476 21479 28
17184 21476 21480 28
17185 21481 21482 28
17186 21481 21483 28
17187 21481 21484 28
17188 21481 21485 28
17189 21486 21487 28
17190 21486 21488 28
17191 21486 21489 28
17192 21486 21490 28
17193 21491 21492 28
17194 21491 21493 28
17195 21491 21494 28
17196 21491 21495 28
17197 21496 21497 28
17198 21496 21498 28
17199 21496 21499 28
17200 21496 21500 28
17201 21501 21502 28
17202 21501 21503 28
17203 21501 21504 28
17204 21501 21505 28
17205 21506 21507 28
17206 21506 21508 28
17207 21506 21509 28
17208 21506 21510 28
17209 21511 21512 28
17210 21511 21513 28
17211 21511 21514 28
17212 21511 21515 28
17213 21516 21517 28
17214 21516 21518 28
17215 21516 21519 28
17216 21516 21520 28
17217 21521 21522 28
17218 21521 21523 28
17219 21521 21524 28
17220 21521 21525 28
17221 21526 21527 28
17222 21526 21528 28
17223 21526 21529 28
17224 21526 21530 28
17225 21531 21532 28
17226 21531 21533 28
17227 21531 21534 28
17228 21531 21535 28
17229 21536 21537 28
17230 21536 21538 28
17231 21536 21539 28
17232 21536 21540 28
17233 21541 21542 28
17234 21541 21543 28
17235 21541 21544 28
17236 21541 21545 28
17237 21546 21547 28
17238 21546 21548 28
17239 21546 21549 28
17240 21546 21550 28
17241 21551 21552 28
17242 21551 21553 28
17243 21551 21554 28
17244 21551 21555 28
17245 21556 21557 28
17246 21556 21558 28
17247 21556 21559 28
17248 21556 21560 28
17249 21561 21562 28
17250 21561 21563 28
17251 21561 21564 28
17252 21561 21565 28
17253 21566 21567 28
17254 21566 21568 28
17255 21566 21569 28
17256 21566 21570 28
17257 21571 21572 28
17258 21571 21573 28
17259 21571 21574 28
17260 21571 21575 28
17261 21576 21577 28
17262 21576 21578 28
17263 21576 21579 28
17264 21576 21580 28
17265 21581 21582 28
17266 21581 21583 28
17267 21581 21584 28
17268 21581 21585 28
17269 21586 21587 28
17270 21586 21588 28
17271 21586 21589 28
17272 21586 21590 28
17273 21591 21592 28
17274 21591 21593 28
17275 21591 21594 28
17276 21591 21595 28
17277 21596 21597 28
17278 21596 21598 28
17279 21596 21599 28
17280 21596 21600 28
17281 21601 21602 28
17282 21601 21603 28
17283 21601 21604 28
17284 21601 21605 28
17285 21606 21607 28
17286 21606 21608 28
17287 21606 21609 28
17288 21606 21610 28
17289 21611 21612 28
17290 21611 21613 28
17291 21611 21614 28
17292 21611 21615 28
17293 21616 21617 28
17294 21616 21618 28
17295 21616 21619 28
17296 21616 21620 28
17297 21621 21622 28
17298 21621 21623 28
17299 21621 21624 28
17300 21621 21625 28
17301 21626 21627 28
17302 21626 21628 28
17303 21626 21629 28
17304 21626 21630 28
17305 21631 21632 28
17306 21631 21633 28
17307 21631 21634 28
17308 21631 21635 28
17309 21636 21637 28
17310 21636 21638 28
17311 21636 21639 28
17312 21636 21640 28
17313 21641 21642 28
17314 21641 21643 28
17315 21641 21644 28
17316 21641 21645 28
17317 21646 21647 28
17318 21646 21648 28
17319 21646 21649 28
17320 21646 21650 28
17321 21651 21652 28
17322 21651 21653 28
17323 21651 21654 28
17324 21651 21655 28
17325 21656 21657 28
17326 21656 21658 28
17327 21656 21659 28
17328 21656 21660 28
17329 21661 21662 28
17330 21661 21663 28
17331 21661 21664 28
17332 21661 21665 28
17333 21666 21667 28
17334 21666 21668 28
17335 21666 21669 28
17336 21666 21670 28
17337 21671 21672 28
17338 21671 21673 28
17339 21671 21674 28
17340 21671 21675 28
17341 21676 21677 28
17342 21676 21678 28
17343 21676 21679 28
17344 21676 21680 28
17345 21681 21682 28
17346 21681 21683 28
17347 21681 21684 28
17348 21681 21685 28
17349 21686 21687 28
17350 21686 21688 28
17351 21686 21689 28
17352 21686 21690 28
17353 21691 21692 28
17354 21691 21693 28
17355 21691 21694 28
17356 21691 21695 28
17357 21696 21697 28
17358 21696 21698 28
17359 21696 21699 28
17360 21696 21700 28
17361 21701 21702 28
17362 21701 21703 28
17363 21701 21704 28
17364 21701 21705 28
17365 21706 21707 28
17366 21706 21708 28
17367 21706 21709 28
17368 21706 21710 28
17369 21711 21712 28
17370 21711 21713 28
17371 21711 21714 28
17372 21711 21715 28
17373 21716 21717 28
17374 21716 21718 28
17375 21716 21719 28
17376 21716 21720 28
17377 21721 21722 28
17378 21721 21723 28
17379 21721 21724 28
17380 21721 21725 28
17381 21726 21727 28
17382 21726 21728 28
17383 21726 21729 28
17384 21726 21730 28
17385 21731 21732 28
17386 21731 21733 28
17387 21731 21734 28
17388 21731 21735 28
17389 21736 21737 28
17390 21736 21738 28
17391 21736 21739 28
17392 21736 21740 28
17393 21741 21742 28
17394 21741 21743 28
17395 21741 21744 28
17396 21741 21745 28
17397 21746 21747 28
17398 21746 21748 28
17399 21746 21749 28
17400 21746 21750 28
17401 21751 21752 28
17402 21751 21753 28
17403 21751 21754 28
17404 21751 21755 28
17405 21756 21757 28
17406 21756 21758 28
17407 21756 21759 28
17408 21756 21760 28
17409 21761 21762 28
17410 21761 21763 28
17411 21761 21764 28
17412 21761 21765 28
17413 21766 21767 28
17414 21766 21768 28
17415 21766 21769 28
17416 21766 21770 28
17417 21771 21772 28
17418 21771 21773 28
17419 21771 21774 28
17420 21771 21775 28
17421 21776 21777 28
17422 21776 21778 28
17423 21776 21779 28
17424 21776 21780 28
17425 21781 21782 28
17426 21781 21783 28
17427 21781 21784 28
17428 21781 21785 28
17429 21786 21787 28
17430 21786 21788 28
17431 21786 21789 28
17432 21786 21790 28
17433 21791 21792 28
17434 21791 21793 28
17435 21791 21794 28
17436 21791 21795 28
17437 21796 21797 28
17438 21796 21798 28
17439 21796 21799 28
17440 21796 21800 28
17441 21801 21802 28
17442 21801 21803 28
17443 21801 21804 28
17444 21801 21805 28
17445 21806 21807 28
17446 21806 21808 28
17447 21806 21809 28
17448 21806 21810 28
17449 21811 21812 28
17450 21811 21813 28
17451 21811 21814 28
17452 21811 21815 28
17453 21816 21817 28
17454 21816 21818 28
17455 21816 21819 28
17456 21816 21820 28
17457 21821 21822 28
17458 21821 21823 28
17459 21821 21824 28
17460 21821 21825 28
17461 21826 21827 28
17462 21826 21828 28
17463 21826 21829 28
17464 21826 21830 28
17465 21831 21832 28
17466 21831 21833 28
17467 21831 21834 28
17468 21831 21835 28
17469 21836 21837 28
17470 21836 21838 28
17471 21836 21839 28
17472 21836 21840 28
17473 21841 21842 28
17474 21841 21843 28
17475 21841 21844 28
17476 21841 21845 28
17477 21846 21847 28
17478 21846 21848 28
17479 21846 21849 28
17480 21846 21850 28
17481 21851 21852 28
17482 21851 21853 28
17483 21851 21854 28
17484 21851 21855 28
17485 21856 21857 28
17486 21856 21858 28
17487 21856 21859 28
17488 21856 21860 28
17489 21861 21862 28
17490 21861 21863 28
17491 21861 21864 28
17492 21861 21865 28
17493 21866 21867 28
17494 21866 21868 28
17495 21866 21869 28
17496 21866 21870 28
17497 21871 21872 28
17498 21871 21873 28
17499 21871 21874 28
17500 21871 21875 28
17501 21876 21877 28
17502 21876 21878 28
17503 21876 21879 28
17504 21876 21880 28
17505 21881 21882 28
17506 21881 21883 28
17507 21881 21884 28
17508 21881 21885 28
17509 21886 21887 28
17510 21886 21888 28
17511 21886 21889 28
17512 21886 21890 28
17513 21891 21892 28
17514 21891 21893 28
17515 21891 21894 28
17516 21891 21895 28
17517 21896 21897 28
17518 21896 21898 28
17519 21896 21899 28
17520 21896 21900 28
17521 21901 21902 28
17522 21901 21903 28
17523 21901 21904 28
17524 21901 21905 28
17525 21906 21907 28
17526 21906 21908 28
17527 21906 21909 28
17528 21906 21910 28
17529 21911 21912 28
17530 21911 21913 28
17531 21911 21914 28
17532 21911 21915 28
17533 21916 21917 28
17534 21916 21918 28
17535 21916 21919 28
17536 21916 21920 28
17537 21921 21922 28
17538 21921 21923 28
17539 21921 21924 28
17540 21921 21925 28
17541 21926 21927 28
17542 21926 21928 28
17543 21926 21929 28
17544 21926 21930 28
17545 21931 21932 28
17546 21931 21933 28
17547 21931 21934 28
17548 21931 21935 28
17549 21936 21937 28
17550 21936 21938 28
17551 21936 21939 28
17552 21936 21940 28
17553 21941 21942 28
17554 21941 21943 28
17555 21941 21944 28
17556 21941 21945 28
17557 21946 21947 28
17558 21946 21948 28
17559 21946 21949 28
17560 21946 21950 28
17561 21951 21952 28
17562 21951 21953 28
17563 21951 21954 28
17564 21951 21955 28
17565 21956 21957 28
17566 21956 21958 28
17567 21956 21959 28
17568 21956 21960 28
17569 21961 21962 28
17570 21961 21963 28
17571 21961 21964 28
17572 21961 21965 28
17573 21966 21967 28
17574 21966 21968 28
17575 21966 21969 28
17576 21966 21970 28
17577 21971 21972 28
17578 21971 21973 28
17579 21971 21974 28
17580 21971 21975 28
17581 21976 21977 28
17582 21976 21978 28
17583 21976 21979 28
17584 21976 21980 28
17585 21981 21982 28
17586 21981 21983 28
17587 21981 21984 28
17588 21981 21985 28
17589 21986 21987 28
17590 21986 21988 28
17591 21986 21989 28
17592 21986 21990 28
17593 21991 21992 28
17594 21991 21993 28
17595 21991 21994 28
17596 21991 21995 28
17597 21996 21997 28
17598 21996 21998 28
17599 21996 21999 28
17600 21996 22000 28
17601 22001 22002 28
17602 22001 22003 28
17603 22001 22004 28
17604 22001 22005 28
17605 22006 22007 28
17606 22006 22008 28
17607 22006 22009 28
17608 22006 22010 28
17609 22011 22012 28
17610 22011 22013 28
17611 22011 22014 28
17612 22011 22015 28
17613 22016 22017 28
17614 22016 22018 28
17615 22016 22019 28
17616 22016 22020 28
17617 22021 22022 28
17618 22021 22023 28
17619 22021 22024 28
17620 22021 22025 28
17621 22026 22027 28
17622 22026 22028 28
17623 22026 22029 28
17624 22026 22030 28
17625 22031 22032 28
17626 22031 22033 28
17627 22031 22034 28
17628 22031 22035 28
17629 22036 22037 28
17630 22036 22038 28
17631 22036 22039 28
17632 22036 22040 28
17633 22041 22042 28
17634 22041 22043 28
17635 22041 22044 28
17636 22041 22045 28
17637 22046 22047 28
17638 22046 22048 28
17639 22046 22049 28
17640 22046 22050 28
17641 22051 22052 28
17642 22051 22053 28
17643 22051 22054 28
17644 22051 22055 28
17645 22056 22057 28
17646 22056 22058 28
17647 22056 22059 28
17648 22056 22060 28
17649 22061 22062 28
17650 22061 22063 28
17651 22061 22064 28
17652 22061 22065 28
17653 22066 22067 28
17654 22066 22068 28
17655 22066 22069 28
17656 22066 22070 28
17657 22071 22072 28
17658 22071 22073 28
17659 22071 22074 28
17660 22071 22075 28
17661 22076 22077 28
17662 22076 22078 28
17663 22076 22079 28
17664 22076 22080 28
17665 22081 22082 28
17666 22081 22083 28
17667 22081 22084 28
17668 22081 22085 28
17669 22086 22087 28
17670 22086 22088 28
17671 22086 22089 28
17672 22086 22090 28
17673 22091 22092 28
17674 22091 22093 28
17675 22091 22094 28
17676 22091 22095 28
17677 22096 22097 28
17678 22096 22098 28
17679 22096 22099 28
17680 22096 22100 28
17681 22101 22102 28
17682 22101 22103 28
17683 22101 22104 28
17684 22101 22105 28
17685 22106 22107 28
17686 22106 22108 28
17687 22106 22109 28
17688 22106 22110 28
17689 22111 22112 28
17690 22111 22113 28
17691 22111 22114 28
17692 22111 22115 28
17693 22116 22117 28
17694 22116 22118 28
17695 22116 22119 28
17696 22116 22120 28
17697 22121 22122 28
17698 22121 22123 28
17699 22121 22124 28
17700 22121 22125 28
17701 22126 22127 28
17702 22126 22128 28
17703 22126 22129 28
17704 22126 22130 28
17705 22131 22132 28
17706 22131 22133 28
17707 22131 22134 28
17708 22131 22135 28
17709 22136 22137 28
17710 22136 22138 28
17711 22136 22139 28
17712 22136 22140 28
17713 22141 22142 28
17714 22141 22143 28
17715 22141 22144 28
17716 22141 22145 28
17717 22146 22147 28
17718 22146 22148 28
17719 22146 22149 28
17720 22146 22150 28
17721 22151 22152 28
17722 22151 22153 28
17723 22151 22154 28
17724 22151 22155 28
17725 22156 22157 28
17726 22156 22158 28
17727 22156 22159 28
17728 22156 22160 28
17729 22161 22162 28
17730 22161 22163 28
17731 22161 22164 28
17732 22161 22165 28
17733 22166 22167 28
17734 22166 22168 28
17735 22166 22169 28
17736 22166 22170 28
17737 22171 22172 28
17738 22171 22173 28
17739 22171 22174 28
17740 22171 22175 28
17741 22176 22177 28
17742 22176 22178 28
17743 22176 22179 28
17744 22176 22180 28
17745 22181 22182 28
17746 22181 22183 28
17747 22181 22184 28
17748 22181 22185 28
17749 22186 22187 28
17750 22186 22188 28
17751 22186 22189 28
17752 22186 22190 28
17753 22191 22192 28
17754 22191 22193 28
17755 22191 22194 28
17756 22191 22195 28
17757 22196 22197 28
17758 22196 22198 28
17759 22196 22199 28
17760 22196 22200 28
17761 22201 22202 28
17762 22201 22203 28
17763 22201 22204 28
17764 22201 22205 28
17765 22206 22207 28
17766 22206 22208 28
17767 22206 22209 28
17768 22206 22210 28
17769 22211 22212 28
17770 22211 22213 28
17771 22211 22214 28
17772 22211 22215 28
17773 22216 22217 28
17774 22216 22218 28
17775 22216 22219 28
17776 22216 22220 28
17777 22221 22222 28
17778 22221 22223 28
17779 22221 22224 28
17780 22221 22225 28
17781 22226 22227 28
17782 22226 22228 28
17783 22226 22229 28
17784 22226 22230 28
17785 22231 22232 28
17786 22231 22233 28
17787 22231 22234 28
17788 22231 22235 28
17789 22236 22237 28
17790 22236 22238 28
17791 22236 22239 28
17792 22236 22240 28
17793 22241 22242 28
17794 22241 22243 28
17795 22241 22244 28
17796 22241 22245 28
17797 22246 22247 28
17798 22246 22248 28
17799 22246 22249 28
17800 22246 22250 28
17801 22251 22252 28
17802 22251 22253 28
17803 22251 22254 28
17804 22251 22255 28
17805 22256 22257 28
17806 22256 22258 28
17807 22256 22259 28
17808 22256 22260 28
17809 22261 22262 28
17810 22261 22263 28
17811 22261 22264 28
17812 22261 22265 28
17813 22266 22267 28
17814 22266 22268 28
17815 22266 22269 28
17816 22266 22270 28
17817 22271 22272 28
17818 22271 22273 28
17819 22271 22274 28
17820 22271 22275 28
17821 22276 22277 28
17822 22276 22278 28
17823 22276 22279 28
17824 22276 22280 28
17825 22281 22282 28
17826 22281 22283 28
17827 22281 22284 28
17828 22281 22285 28
17829 22286 22287 28
17830 22286 22288 28
17831 22286 22289 28
17832 22286 22290 28
17833 22291 22292 28
17834 22291 22293 28
17835 22291 22294 28
17836 22291 22295 28
17837 22296 22297 28
17838 22296 22298 28
17839 22296 22299 28
17840 22296 22300 28
17841 22301 22302 28
17842 22301 22303 28
17843 22301 22304 28
17844 22301 22305 28
17845 22306 22307 28
17846 22306 22308 28
17847 22306 22309 28
17848 22306 22310 28
17849 22311 22312 28
17850 22311 22313 28
17851 22311 22314 28
17852 22311 22315 28
17853 22316 22317 28
17854 22316 22318 28
17855 22316 22319 28
17856 22316 22320 28
17857 22321 22322 28
17858 22321 22323 28
17859 22321 22324 28
17860 22321 22325 28
17861 22326 22327 28
17862 22326 22328 28
17863 22326 22329 28
17864 22326 22330 28
17865 22331 22332 28
17866 22331 22333 28
17867 22331 22334 28
17868 22331 22335 28
17869 22336 22337 28
17870 22336 22338 28
17871 22336 22339 28
17872 22336 22340 28
17873 22341 22342 28
17874 22341 22343 28
17875 22341 22344 28
17876 22341 22345 28
17877 22346 22347 28
17878 22346 22348 28
17879 22346 22349 28
17880 22346 22350 28
17881 22351 22352 28
17882 22351 22353 28
17883 22351 22354 28
17884 22351 22355 28
17885 22356 22357 28
17886 22356 22358 28
17887 22356 22359 28
17888 22356 22360 28
17889 22361 22362 28
17890 22361 22363 28
17891 22361 22364 28
17892 22361 22365 28
17893 22366 22367 28
17894 22366 22368 28
17895 22366 22369 28
17896 22366 22370 28
17897 22371 22372 28
17898 22371 22373 28
17899 22371 22374 28
17900 22371 22375 28
17901 22376 22377 28
17902 22376 22378 28
17903 22376 22379 28
17904 22376 22380 28
17905 22381 22382 28
17906 22381 22383 28
17907 22381 22384 28
17908 22381 22385 28
17909 22386 22387 28
17910 22386 22388 28
17911 22386 22389 28
17912 22386 22390 28
17913 22391 22392 28
17914 22391 22393 28
17915 22391 22394 28
17916 22391 22395 28
17917 22396 22397 28
17918 22396 22398 28
17919 22396 22399 28
17920 22396 22400 28
17921 22401 22402 28
17922 22401 22403 28
17923 22401 22404 28
17924 22401 22405 28
17925 22406 22407 28
17926 22406 22408 28
17927 22406 22409 28
17928 22406 22410 28
17929 22411 22412 28
17930 22411 22413 28
17931 22411 22414 28
17932 22411 22415 28
17933 22416 22417 28
17934 22416 22418 28
17935 22416 22419 28
17936 22416 22420 28
17937 22421 22422 28
17938 22421 22423 28
17939 22421 22424 28
17940 22421 22425 28
17941 22426 22427 28
17942 22426 22428 28
17943 22426 22429 28
17944 22426 22430 28
17945 22431 22432 28
17946 22431 22433 28
17947 22431 22434 28
17948 22431 22435 28
17949 22436 22437 28
17950 22436 22438 28
17951 22436 22439 28
17952 22436 22440 28
17953 22441 22442 28
17954 22441 22443 28
17955 22441 22444 28
17956 22441 22445 28
17957 22446 22447 28
17958 22446 22448 28
17959 22446 22449 28
17960 22446 22450 28
17961 22451 22452 28
17962 22451 22453 28
17963 22451 22454 28
17964 22451 22455 28
17965 22456 22457 28
17966 22456 22458 28
17967 22456 22459 28
17968 22456 22460 28
17969 22461 22462 28
17970 22461 22463 28
17971 22461 22464 28
17972 22461 22465 28
17973 22466 22467 28
17974 22466 22468 28
17975 22466 22469 28
17976 22466 22470 28
17977 22471 22472 28
17978 22471 22473 28
17979 22471 22474 28
17980 22471 22475 28
17981 22476 22477 28
17982 22476 22478 28
17983 22476 22479 28
17984 22476 22480 28
17985 22481 22482 28
17986 22481 22483 28
17987 22481 22484 28
17988 22481 22485 28
17989 22486 22487 28
17990 22486 22488 28
17991 22486 22489 28
17992 22486 22490 28
17993 22491 22492 28
17994 22491 22493 28
17995 22491 22494 28
17996 22491 22495 28
17997 22496 22497 28
17998 22496 22498 28
17999 22496 22499 28
18000 22496 22500 28
18001 22501 22502 28
18002 22501 22503 28
18003 22501 22504 28
18004 22501 22505 28
18005 22506 22507 28
18006 22506 22508 28
18007 22506 22509 28
18008 22506 22510 28
18009 22511 22512 28
18010 22511 22513 28
18011 22511 22514 28
18012 22511 22515 28
18013 22516 22517 28
18014 22516 22518 28
18015 22516 22519 28
18016 22516 22520 28
18017 22521 22522 28
18018 22521 22523 28
18019 22521 22524 28
18020 22521 22525 28
18021 22526 22527 28
18022 22526 22528 28
18023 22526 22529 28
18024 22526 22530 28
18025 22531 22532 28
18026 22531 22533 28
18027 22531 22534 28
18028 22531 22535 28
18029 22536 22537 28
18030 22536 22538 28
18031 22536 22539 28
18032 22536 22540 28
18033 22541 22542 28
18034 22541 22543 28
18035 22541 22544 28
18036 22541 22545 28
18037 22546 22547 28
18038 22546 22548 28
18039 22546 22549 28
18040 22546 22550 28
18041 22551 22552 28
18042 22551 22553 28
18043 22551 22554 28
18044 22551 22555 28
18045 22556 22557 28
18046 22556 22558 28
18047 22556 22559 28
18048 22556 22560 28
18049 22561 22562 28
18050 22561 22563 28
18051 22561 22564 28
18052 22561 22565 28
18053 22566 22567 28
18054 22566 22568 28
18055 22566 22569 28
18056 22566 22570 28
18057 22571 22572 28
18058 22571 22573 28
18059 22571 22574 28
18060 22571 22575 28
18061 22576 22577 28
18062 22576 22578 28
18063 22576 22579 28
18064 22576 22580 28
18065 22581 22582 28
18066 22581 22583 28
18067 22581 22584 28
18068 22581 22585 28
18069 22586 22587 28
18070 22586 22588 28
18071 22586 22589 28
18072 22586 22590 28
18073 22591 22592 28
18074 22591 22593 28
18075 22591 22594 28
18076 22591 22595 28
18077 22596 22597 28
18078 22596 22598 28
18079 22596 22599 28
18080 22596 22600 28
18081 22601 22602 28
18082 22601 22603 28
18083 22601 22604 28
18084 22601 22605 28
18085 22606 22607 28
18086 22606 22608 28
18087 22606 22609 28
18088 22606 22610 28
18089 22611 22612 28
18090 22611 22613 28
18091 22611 22614 28
18092 22611 22615 28
18093 22616 22617 28
18094 22616 22618 28
18095 22616 22619 28
18096 22616 22620 28
18097 22621 22622 28
18098 22621 22623 28
18099 22621 22624 28
18100 22621 22625 28
18101 22626 22627 28
18102 22626 22628 28
18103 22626 22629 28
18104 22626 22630 28
18105 22631 22632 28
18106 22631 22633 28
18107 22631 22634 28
18108 22631 22635 28
18109 22636 22637 28
18110 22636 22638 28
18111 22636 22639 28
18112 22636 22640 28
18113 22641 22642 28
18114 22641 22643 28
18115 22641 22644 28
18116 22641 22645 28
18117 22646 22647 28
18118 22646 22648 28
18119 22646 22649 28
18120 22646 22650 28
18121 22651 22652 28
18122 22651 22653 28
18123 22651 22654 28
18124 22651 22655 28
18125 22656 22657 28
18126 22656 22658 28
18127 22656 22659 28
18128 22656 22660 28
18129 22661 22662 28
18130 22661 22663 28
18131 22661 22664 28
18132 22661 22665 28
18133 22666 22667 28
18134 22666 22668 28
18135 22666 22669 28
18136 22666 22670 28
18137 22671 22672 28
18138 22671 22673 28
18139 22671 22674 28
18140 22671 22675 28
18141 22676 22677 28
18142 22676 22678 28
18143 22676 22679 28
18144 22676 22680 28
18145 22681 22682 28
18146 22681 22683 28
18147 22681 22684 28
18148 22681 22685 28
18149 22686 22687 28
18150 22686 22688 28
18151 22686 22689 28
18152 22686 22690 28
18153 22691 22692 28
18154 22691 22693 28
18155 22691 22694 28
18156 22691 22695 28
18157 22696 22697 28
18158 22696 22698 28
18159 22696 22699 28
18160 22696 22700 28
18161 22701 22702 28
18162 22701 22703 28
18163 22701 22704 28
18164 22701 22705 28
18165 22706 22707 28
18166 22706 22708 28
18167 22706 22709 28
18168 22706 22710 28
18169 22711 22712 28
18170 22711 22713 28
18171 22711 22714 28
18172 22711 22715 28
18173 22716 22717 28
18174 22716 22718 28
18175 22716 22719 28
18176 22716 22720 28
18177 22721 22722 28
18178 22721 22723 28
18179 22721 22724 28
18180 22721 22725 28
18181 22726 22727 28
18182 22726 22728 28
18183 22726 22729 28
18184 22726 22730 28
18185 22731 22732 28
18186 22731 22733 28
18187 22731 22734 28
18188 22731 22735 28
18189 22736 22737 28
18190 22736 22738 28
18191 22736 22739 28
18192 22736 22740 28
18193 22741 22742 28
18194 22741 22743 28
18195 22741 22744 28
18196 22741 22745 28
18197 22746 22747 28
18198 22746 22748 28
18199 22746 22749 28
18200 22746 22750 28
18201 22751 22752 28
18202 22751 22753 28
18203 22751 22754 28
18204 22751 22755 28
18205 22756 22757 28
18206 22756 22758 28
18207 22756 22759 28
18208 22756 22760 28
18209 22761 22762 28
18210 22761 22763 28
18211 22761 22764 28
18212 22761 22765 28
18213 22766 22767 28
18214 22766 22768 28
18215 22766 22769 28
18216 22766 22770 28
18217 22771 22772 28
18218 22771 22773 28
18219 22771 22774 28
18220 22771 22775 28
18221 22776 22777 28
18222 22776 22778 28
18223 22776 22779 28
18224 22776 22780 28
18225 22781 22782 28
18226 22781 22783 28
18227 22781 22784 28
18228 22781 22785 28
18229 22786 22787 28
18230 22786 22788 28
18231 22786 22789 28
18232 22786 22790 28
18233 22791 22792 28
18234 22791 22793 28
18235 22791 22794 28
18236 22791 22795 28
18237 22796 22797 28
18238 22796 22798 28
18239 22796 22799 28
18240 22796 22800 28
18241 22801 22802 28
18242 22801 22803 28
18243 22801 22804 28
18244 22801 22805 28
18245 22806 22807 28
18246 22806 22808 28
18247 22806 22809 28
18248 22806 22810 28
18249 22811 22812 28
18250 22811 22813 28
18251 22811 22814 28
18252 22811 22815 28
18253 22816 22817 28
18254 22816 22818 28
18255 22816 22819 28
18256 22816 22820 28
18257 22821 22822 28
18258 22821 22823 28
18259 22821 22824 28
18260 22821 22825 28
18261 22826 22827 28
18262 22826 22828 28
18263 22826 22829 28
18264 22826 22830 28
18265 22831 22832 28
18266 22831 22833 28
18267 22831 22834 28
18268 22831 22835 28
18269 22836 22837 28
18270 22836 22838 28
18271 22836 22839 28
18272 22836 22840 28
18273 22841 22842 28
18274 22841 22843 28
18275 22841 22844 28
18276 22841 22845 28
18277 22846 22847 28
18278 22846 22848 28
18279 22846 22849 28
18280 22846 22850 28
18281 22851 22852 28
18282 22851 22853 28
18283 22851 22854 28
18284 22851 22855 28
18285 22856 22857 28
18286 22856 22858 28
18287 22856 22859 28
18288 22856 22860 28
18289 22861 22862 28
18290 22861 22863 28
18291 22861 22864 28
18292 22861 22865 28
18293 22866 22867 28
18294 22866 22868 28
18295 22866 22869 28
18296 22866 22870 28
18297 22871 22872 28
18298 22871 22873 28
18299 22871 22874 28
18300 22871 22875 28
18301 22876 22877 28
18302 22876 22878 28
18303 22876 22879 28
18304 22876 22880 28
18305 22881 22882 28
18306 22881 22883 28
18307 22881 22884 28
18308 22881 22885 28
18309 22886 22887 28
18310 22886 22888 28
18311 22886 22889 28
18312 22886 22890 28
18313 22891 22892 28
18314 22891 22893 28
18315 22891 22894 28
18316 22891 22895 28
18317 22896 22897 28
18318 22896 22898 28
18319 22896 22899 28
18320 22896 22900 28
18321 22901 22902 28
18322 22901 22903 28
18323 22901 22904 28
18324 22901 22905 28
18325 22906 22907 28
18326 22906 22908 28
18327 22906 22909 28
18328 22906 22910 28
18329 22911 22912 28
18330 22911 22913 28
18331 22911 22914 28
18332 22911 22915 28
18333 22916 22917 28
18334 22916 22918 28
18335 22916 22919 28
18336 22916 22920 28
18337 22921 22922 28
18338 22921 22923 28
18339 22921 22924 28
18340 22921 22925 28
18341 22926 22927 28
18342 22926 22928 28
18343 22926 22929 28
18344 22926 22930 28
18345 22931 22932 28
18346 22931 22933 28
18347 22931 22934 28
18348 22931 22935 28
18349 22936 22937 28
18350 22936 22938 28
18351 22936 22939 28
18352 22936 22940 28
18353 22941 22942 28
18354 22941 22943 28
18355 22941 22944 28
18356 22941 22945 28
18357 22946 22947 28
18358 22946 22948 28
18359 22946 22949 28
18360 22946 22950 28
18361 22951 22952 28
18362 22951 22953 28
18363 22951 22954 28
18364 22951 22955 28
18365 22956 22957 28
18366 22956 22958 28
18367 22956 22959 28
18368 22956 22960 28
18369 22961 22962 28
18370 22961 22963 28
18371 22961 22964 28
18372 22961 22965 28
18373 22966 22967 28
18374 22966 22968 28
18375 22966 22969 28
18376 22966 22970 28
18377 22971 22972 28
18378 22971 22973 28
18379 22971 22974 28
18380 22971 22975 28
18381 22976 22977 28
18382 22976 22978 28
18383 22976 22979 28
18384 22976 22980 28
18385 22981 22982 28
18386 22981 22983 28
18387 22981 22984 28
18388 22981 22985 28
18389 22986 22987 28
18390 22986 22988 28
18391 22986 22989 28
18392 22986 22990 28
18393 22991 22992 28
18394 22991 22993 28
18395 22991 22994 28
18396 22991 22995 28
18397 22996 22997 28
18398 22996 22998 28
18399 22996 22999 28
18400 22996 23000 28
18401 23001 23002 28
18402 23001 23003 28
18403 23001 23004 28
18404 23001 23005 28
18405 23006 23007 28
18406 23006 23008 28
18407 23006 23009 28
18408 23006 23010 28
18409 23011 23012 28
18410 23011 23013 28
18411 23011 23014 28
18412 23011 23015 28
18413 23016 23017 28
18414 23016 23018 28
18415 23016 23019 28
18416 23016 23020 28
18417 23021 23022 28
18418 23021 23023 28
18419 23021 23024 28
18420 23021 23025 28
18421 23026 23027 28
18422 23026 23028 28
18423 23026 23029 28
18424 23026 23030 28
18425 23031 23032 28
18426 23031 23033 28
18427 23031 23034 28
18428 23031 23035 28
18429 23036 23037 28
18430 23036 23038 28
18431 23036 23039 28
18432 23036 23040 28
18433 23041 23042 28
18434 23041 23043 28
18435 23041 23044 28
18436 23041 23045 28
18437 23046 23047 28
18438 23046 23048 28
18439 23046 23049 28
18440 23046 23050 28
18441 23051 23052 28
18442 23051 23053 28
18443 23051 23054 28
18444 23051 23055 28
18445 23056 23057 28
18446 23056 23058 28
18447 23056 23059 28
18448 23056 23060 28
18449 23061 23062 28
18450 23061 23063 28
18451 23061 23064 28
18452 23061 23065 28
18453 23066 23067 28
18454 23066 23068 28
18455 23066 23069 28
18456 23066 23070 28
18457 23071 23072 28
18458 23071 23073 28
18459 23071 23074 28
18460 23071 23075 28
18461 23076 23077 28
18462 23076 23078 28
18463 23076 23079 28
18464 23076 23080 28
18465 23081 23082 28
18466 23081 23083 28
18467 23081 23084 28
18468 23081 23085 28
18469 23086 23087 28
18470 23086 23088 28
18471 23086 23089 28
18472 23086 23090 28
18473 23091 23092 28
18474 23091 23093 28
18475 23091 23094 28
18476 23091 23095 28
18477 23096 23097 28
18478 23096 23098 28
18479 23096 23099 28
18480 23096 23100 28
18481 23101 23102 28
18482 23101 23103 28
18483 23101 23104 28
18484 23101 23105 28
18485 23106 23107 28
18486 23106 23108 28
18487 23106 23109 28
18488 23106 23110 28
18489 23111 23112 28
18490 23111 23113 28
18491 23111 23114 28
18492 23111 23115 28
18493 23116 23117 28
18494 23116 23118 28
18495 23116 23119 28
18496 23116 23120 28
18497 23121 23122 28
18498 23121 23123 28
18499 23121 23124 28
18500 23121 23125 28
18501 23126 23127 28
18502 23126 23128 28
18503 23126 23129 28
18504 23126 23130 28
18505 23131 23132 28
18506 23131 23133 28
18507 23131 23134 28
18508 23131 23135 28
18509 23136 23137 28
18510 23136 23138 28
18511 23136 23139 28
18512 23136 23140 28
18513 23141 23142 28
18514 23141 23143 28
18515 23141 23144 28
18516 23141 23145 28
18517 23146 23147 28
18518 23146 23148 28
18519 23146 23149 28
18520 23146 23150 28
18521 23151 23152 28
18522 23151 23153 28
18523 23151 23154 28
18524 23151 23155 28
18525 23156 23157 28
18526 23156 23158 28
18527 23156 23159 28
18528 23156 23160 28
18529 23161 23162 28
18530 23161 23163 28
18531 23161 23164 28
18532 23161 23165 28
18533 23166 23167 28
18534 23166 23168 28
18535 23166 23169 28
18536 23166 23170 28
18537 23171 23172 28
18538 23171 23173 28
18539 23171 23174 28
18540 23171 23175 28
18541 23176 23177 28
18542 23176 23178 28
18543 23176 23179 28
18544 23176 23180 28
18545 23181 23182 28
18546 23181 23183 28
18547 23181 23184 28
18548 23181 23185 28
18549 23186 23187 28
18550 23186 23188 28
18551 23186 23189 28
18552 23186 23190 28
18553 23191 23192 28
18554 23191 23193 28
18555 23191 23194 28
18556 23191 23195 28
18557 23196 23197 28
18558 23196 23198 28
18559 23196 23199 28
18560 23196 23200 28
18561 23201 23202 28
18562 23201 23203 28
18563 23201 23204 28
18564 23201 23205 28
18565 23206 23207 28
18566 23206 23208 28
18567 23206 23209 28
18568 23206 23210 28
18569 23211 23212 28
18570 23211 23213 28
18571 23211 23214 28
18572 23211 23215 28
18573 23216 23217 28
18574 23216 23218 28
18575 23216 23219 28
18576 23216 23220 28
18577 23221 23222 28
18578 23221 23223 28
18579 23221 23224 28
18580 23221 23225 28
18581 23226 23227 28
18582 23226 23228 28
18583 23226 23229 28
18584 23226 23230 28
18585 23231 23232 28
18586 23231 23233 28
18587 23231 23234 28
18588 23231 23235 28
18589 23236 23237 28
18590 23236 23238 28
18591 23236 23239 28
18592 23236 23240 28
18593 23241 23242 28
18594 23241 23243 28
18595 23241 23244 28
18596 23241 23245 28
18597 23246 23247 28
18598 23246 23248 28
18599 23246 23249 28
18600 23246 23250 28
18601 23251 23252 28
18602 23251 23253 28
18603 23251 23254 28
18604 23251 23255 28
18605 23256 23257 28
18606 23256 23258 28
18607 23256 23259 28
18608 23256 23260 28
18609 23261 23262 28
18610 23261 23263 28
18611 23261 23264 28
18612 23261 23265 28
18613 23266 23267 28
18614 23266 23268 28
18615 23266 23269 28
18616 23266 23270 28
18617 23271 23272 28
18618 23271 23273 28
18619 23271 23274 28
18620 23271 23275 28
18621 23276 23277 28
18622 23276 23278 28
18623 23276 23279 28
18624 23276 23280 28
18625 23281 23282 28
18626 23281 23283 28
18627 23281 23284 28
18628 23281 23285 28
18629 23286 23287 28
18630 23286 23288 28
18631 23286 23289 28
18632 23286 23290 28
18633 23291 23292 28
18634 23291 23293 28
18635 23291 23294 28
18636 23291 23295 28
18637 23296 23297 28
18638 23296 23298 28
18639 23296 23299 28
18640 23296 23300 28
18641 23301 23302 28
18642 23301 23303 28
18643 23301 23304 28
18644 23301 23305 28
18645 23306 23307 28
18646 23306 23308 28
18647 23306 23309 28
18648 23306 23310 28
18649 23311 23312 28
18650 23311 23313 28
18651 23311 23314 28
18652 23311 23315 28
18653 23316 23317 28
18654 23316 23318 28
18655 23316 23319 28
18656 23316 23320 28
18657 23321 23322 28
18658 23321 23323 28
18659 23321 23324 28
18660 23321 23325 28
18661 23326 23327 28
18662 23326 23328 28
18663 23326 23329 28
18664 23326 23330 28
18665 23331 23332 28
18666 23331 23333 28
18667 23331 23334 28
18668 23331 23335 28
18669 23336 23337 28
18670 23336 23338 28
18671 23336 23339 28
18672 23336 23340 28
18673 23341 23342 28
18674 23341 23343 28
18675 23341 23344 28
18676 23341 23345 28
18677 23346 23347 28
18678 23346 23348 28
18679 23346 23349 28
18680 23346 23350 28
18681 23351 23352 28
18682 23351 23353 28
18683 23351 23354 28
18684 23351 23355 28
18685 23356 23357 28
18686 23356 23358 28
18687 23356 23359 28
18688 23356 23360 28
18689 23361 23362 28
18690 23361 23363 28
18691 23361 23364 28
18692 23361 23365 28
18693 23366 23367 28
18694 23366 23368 28
18695 23366 23369 28
18696 23366 23370 28
18697 23371 23372 28
18698 23371 23373 28
18699 23371 23374 28
18700 23371 23375 28
18701 23376 23377 28
18702 23376 23378 28
18703 23376 23379 28
18704 23376 23380 28
18705 23381 23382 28
18706 23381 23383 28
18707 23381 23384 28
18708 23381 23385 28
18709 23386 23387 28
18710 23386 23388 28
18711 23386 23389 28
18712 23386 23390 28
18713 23391 23392 28
18714 23391 23393 28
18715 23391 23394 28
18716 23391 23395 28
18717 23396 23397 28
18718 23396 23398 28
18719 23396 23399 28
18720 23396 23400 28
18721 23401 23402 28
18722 23401 23403 28
18723 23401 23404 28
18724 23401 23405 28
18725 23406 23407 28
18726 23406 23408 28
18727 23406 23409 28
18728 23406 23410 28
18729 23411 23412 28
18730 23411 23413 28
18731 23411 23414 28
18732 23411 23415 28
18733 23416 23417 28
18734 23416 23418 28
18735 23416 23419 28
18736 23416 23420 28
18737 23421 23422 28
18738 23421 23423 28
18739 23421 23424 28
18740 23421 23425 28
18741 23426 23427 28
18742 23426 23428 28
18743 23426 23429 28
18744 23426 23430 28
18745 23431 23432 28
18746 23431 23433 28
18747 23431 23434 28
18748 23431 23435 28
18749 23436 23437 28
18750 23436 23438 28
18751 23436 23439 28
18752 23436 23440 28
18753 23441 23442 28
18754 23441 23443 28
18755 23441 23444 28
18756 23441 23445 28
18757 23446 23447 28
18758 23446 23448 28
18759 23446 23449 28
18760 23446 23450 28
18761 23451 23452 28
18762 23451 23453 28
18763 23451 23454 28
18764 23451 23455 28
18765 23456 23457 28
18766 23456 23458 28
18767 23456 23459 28
18768 23456 23460 28
18769 23461 23462 28
18770 23461 23463 28
18771 23461 23464 28
18772 23461 23465 28
18773 23466 23467 28
18774 23466 23468 28
18775 23466 23469 28
18776 23466 23470 28
18777 23471 23472 28
18778 23471 23473 28
18779 23471 23474 28
18780 23471 23475 28
18781 23476 23477 28
18782 23476 23478 28
18783 23476 23479 28
18784 23476 23480 28
18785 23481 23482 28
18786 23481 23483 28
18787 23481 23484 28
18788 23481 23485 28
18789 23486 23487 28
18790 23486 23488 28
18791 23486 23489 28
18792 23486 23490 28
18793 23491 23492 28
18794 23491 23493 28
18795 23491 23494 28
18796 23491 23495 28
18797 23496 23497 28
18798 23496 23498 28
18799 23496 23499 28
18800 23496 23500 28
18801 23501 23502 28
18802 23501 23503 28
18803 23501 23504 28
18804 23501 23505 28
18805 23506 23507 28
18806 23506 23508 28
18807 23506 23509 28
18808 23506 23510 28
18809 23511 23512 28
18810 23511 23513 28
18811 23511 23514 28
18812 23511 23515 28
18813 23516 23517 28
18814 23516 23518 28
18815 23516 23519 28
18816 23516 23520 28
18817 23521 23522 28
18818 23521 23523 28
18819 23521 23524 28
18820 23521 23525 28
18821 23526 23527 28
18822 23526 23528 28
18823 23526 23529 28
18824 23526 23530 28
18825 23531 23532 28
18826 23531 23533 28
18827 23531 23534 28
18828 23531 23535 28
18829 23536 23537 28
18830 23536 23538 28
18831 23536 23539 28
18832 23536 23540 28
18833 23541 23542 28
18834 23541 23543 28
18835 23541 23544 28
18836 23541 23545 28
18837 23546 23547 28
18838 23546 23548 28
18839 23546 23549 28
18840 23546 23550 28
18841 23551 23552 28
18842 23551 23553 28
18843 23551 23554 28
18844 23551 23555 28
18845 23556 23557 28
18846 23556 23558 28
18847 23556 23559 28
18848 23556 23560 28
18849 23561 23562 28
18850 23561 23563 28
18851 23561 23564 28
18852 23561 23565 28
18853 23566 23567 28
18854 23566 23568 28
18855 23566 23569 28
18856 23566 23570 28
18857 23571 23572 28
18858 23571 23573 28
18859 23571 23574 28
18860 23571 23575 28
18861 23576 23577 28
18862 23576 23578 28
18863 23576 23579 28
18864 23576 23580 28
18865 23581 23582 28
18866 23581 23583 28
18867 23581 23584 28
18868 23581 23585 28
18869 23586 23587 28
18870 23586 23588 28
18871 23586 23589 28
18872 23586 23590 28
18873 23591 23592 28
18874 23591 23593 28
18875 23591 23594 28
18876 23591 23595 28
18877 23596 23597 28
18878 23596 23598 28
18879 23596 23599 28
18880 23596 23600 28
18881 23601 23602 28
18882 23601 23603 28
18883 23601 23604 28
18884 23601 23605 28
18885 23606 23607 28
18886 23606 23608 28
18887 23606 23609 28
18888 23606 23610 28
18889 23611 23612 28
18890 23611 23613 28
18891 23611 23614 28
18892 23611 23615 28
18893 23616 23617 28
18894 23616 23618 28
18895 23616 23619 28
18896 23616 23620 28
18897 23621 23622 28
18898 23621 23623 28
18899 23621 23624 28
18900 23621 23625 28
18901 23626 23627 28
18902 23626 23628 28
18903 23626 23629 28
18904 23626 23630 28
18905 23631 23632 28
18906 23631 23633 28
18907 23631 23634 28
18908 23631 23635 28
18909 23636 23637 28
18910 23636 23638 28
18911 23636 23639 28
18912 23636 23640 28
18913 23641 23642 28
18914 23641 23643 28
18915 23641 23644 28
18916 23641 23645 28
18917 23646 23647 28
18918 23646 23648 28
18919 23646 23649 28
18920 23646 23650 28
18921 23651 23652 28
18922 23651 23653 28
18923 23651 23654 28
18924 23651 23655 28
18925 23656 23657 28
18926 23656 23658 28
18927 23656 23659 28
18928 23656 23660 28
18929 23661 23662 28
18930 23661 23663 28
18931 23661 23664 28
18932 23661 23665 28
18933 23666 23667 28
18934 23666 23668 28
18935 23666 23669 28
18936 23666 23670 28
18937 23671 23672 28
18938 23671 23673 28
18939 23671 23674 28
18940 23671 23675 28
18941 23676 23677 28
18942 23676 23678 28
18943 23676 23679 28
18944 23676 23680 28
18945 23681 23682 28
18946 23681 23683 28
18947 23681 23684 28
18948 23681 23685 28
18949 23686 23687 28
18950 23686 23688 28
18951 23686 23689 28
18952 23686 23690 28
18953 23691 23692 28
18954 23691 23693 28
18955 23691 23694 28
18956 23691 23695 28
18957 23696 23697 28
18958 23696 23698 28
18959 23696 23699 28
18960 23696 23700 28
18961 23701 23702 28
18962 23701 23703 28
18963 23701 23704 28
18964 23701 23705 28
18965 23706 23707 28
18966 23706 23708 28
18967 23706 23709 28
18968 23706 23710 28
18969 23711 23712 28
18970 23711 23713 28
18971 23711 23714 28
18972 23711 23715 28
18973 23716 23717 28
18974 23716 23718 28
18975 23716 23719 28
18976 23716 23720 28
18977 23721 23722 28
18978 23721 23723 28
18979 23721 23724 28
18980 23721 23725 28
18981 23726 23727 28
18982 23726 23728 28
18983 23726 23729 28
18984 23726 23730 28
18985 23731 23732 28
18986 23731 23733 28
18987 23731 23734 28
18988 23731 23735 28
18989 23736 23737 28
18990 23736 23738 28
18991 23736 23739 28
18992 23736 23740 28
18993 23741 23742 28
18994 23741 23743 28
18995 23741 23744 28
18996 23741 23745 28
18997 23746 23747 28
18998 23746 23748 28
18999 23746 23749 28
19000 23746 23750 28
19001 23751 23752 28
19002 23751 23753 28
19003 23751 23754 28
19004 23751 23755 28
19005 23756 23757 28
19006 23756 23758 28
19007 23756 23759 28
19008 23756 23760 28
19009 23761 23762 28
19010 23761 23763 28
19011 23761 23764 28
19012 23761 23765 28
19013 23766 23767 28
19014 23766 23768 28
19015 23766 23769 28
19016 23766 23770 28
19017 23771 23772 28
19018 23771 23773 28
19019 23771 23774 28
19020 23771 23775 28
19021 23776 23777 28
19022 23776 23778 28
19023 23776 23779 28
19024 23776 23780 28
19025 23781 23782 28
19026 23781 23783 28
19027 23781 23784 28
19028 23781 23785 28
19029 23786 23787 28
19030 23786 23788 28
19031 23786 23789 28
19032 23786 23790 28
19033 23791 23792 28
19034 23791 23793 28
19035 23791 23794 28
19036 23791 23795 28
19037 23796 23797 28
19038 23796 23798 28
19039 23796 23799 28
19040 23796 23800 28
19041 23801 23802 28
19042 23801 23803 28
19043 23801 23804 28
19044 23801 23805 28
19045 23806 23807 28
19046 23806 23808 28
19047 23806 23809 28
19048 23806 23810 28
19049 23811 23812 28
19050 23811 23813 28
19051 23811 23814 28
19052 23811 23815 28
19053 23816 23817 28
19054 23816 23818 28
19055 23816 23819 28
19056 23816 23820 28
19057 23821 23822 28
19058 23821 23823 28
19059 23821 23824 28
19060 23821 23825 28
19061 23826 23827 28
19062 23826 23828 28
19063 23826 23829 28
19064 23826 23830 28
19065 23831 23832 28
19066 23831 23833 28
19067 23831 23834 28
19068 23831 23835 28
19069 23836 23837 28
19070 23836 23838 28
19071 23836 23839 28
19072 23836 23840 28
19073 23841 23842 28
19074 23841 23843 28
19075 23841 23844 28
19076 23841 23845 28
19077 23846 23847 28
19078 23846 23848 28
19079 23846 23849 28
19080 23846 23850 28
19081 23851 23852 28
19082 23851 23853 28
19083 23851 23854 28
19084 23851 23855 28
19085 23856 23857 28
19086 23856 23858 28
19087 23856 23859 28
19088 23856 23860 28
19089 23861 23862 28
19090 23861 23863 28
19091 23861 23864 28
19092 23861 23865 28
19093 23866 23867 28
19094 23866 23868 28
19095 23866 23869 28
19096 23866 23870 28
19097 23871 23872 28
19098 23871 23873 28
19099 23871 23874 28
19100 23871 23875 28
19101 23876 23877 28
19102 23876 23878 28
19103 23876 23879 28
19104 23876 23880 28
19105 23881 23882 28
19106 23881 23883 28
19107 23881 23884 28
19108 23881 23885 28
19109 23886 23887 28
19110 23886 23888 28
19111 23886 23889 28
19112 23886 23890 28
19113 23891 23892 28
19114 23891 23893 28
19115 23891 23894 28
19116 23891 23895 28
19117 23896 23897 28
19118 23896 23898 28
19119 23896 23899 28
19120 23896 23900 28
19121 23901 23902 28
19122 23901 23903 28
19123 23901 23904 28
19124 23901 23905 28
19125 23906 23907 28
19126 23906 23908 28
19127 23906 23909 28
19128 23906 23910 28
19129 23911 23912 28
19130 23911 23913 28
19131 23911 23914 28
19132 23911 23915 28
19133 23916 23917 28
19134 23916 23918 28
19135 23916 23919 28
19136 23916 23920 28
19137 23921 23922 28
19138 23921 23923 28
19139 23921 23924 28
19140 23921 23925 28
19141 23926 23927 28
19142 23926 23928 28
19143 23926 23929 28
19144 23926 23930 28
19145 23931 23932 28
19146 23931 23933 28
19147 23931 23934 28
19148 23931 23935 28
19149 23936 23937 28
19150 23936 23938 28
19151 23936 23939 28
19152 23936 23940 28
19153 23941 23942 28
19154 23941 23943 28
19155 23941 23944 28
19156 23941 23945 28
19157 23946 23947 28
19158 23946 23948 28
19159 23946 23949 28
19160 23946 23950 28
19161 23951 23952 28
19162 23951 23953 28
19163 23951 23954 28
19164 23951 23955 28
19165 23956 23957 28
19166 23956 23958 28
19167 23956 23959 28
19168 23956 23960 28
19169 23961 23962 28
19170 23961 23963 28
19171 23961 23964 28
19172 23961 23965 28
19173 23966 23967 28
19174 23966 23968 28
19175 23966 23969 28
19176 23966 23970 28
19177 23971 23972 28
19178 23971 23973 28
19179 23971 23974 28
19180 23971 23975 28
19181 23976 23977 28
19182 23976 23978 28
19183 23976 23979 28
19184 23976 23980 28
19185 23981 23982 28
19186 23981 23983 28
19187 23981 23984 28
19188 23981 23985 28
19189 23986 23987 28
19190 23986 23988 28
19191 23986 23989 28
19192 23986 23990 28
19193 23991 23992 28
19194 23991 23993 28
19195 23991 23994 28
19196 23991 23995 28
19197 23996 23997 28
19198 23996 23998 28
19199 23996 23999 28
19200 23996 24000 28
19201 24001 24002 28
19202 24001 24003 28
19203 24001 24004 28
19204 24001 24005 28
19205 24006 24007 28
19206 24006 24008 28
19207 24006 24009 28
19208 24006 24010 28
19209 24011 24012 28
19210 24011 24013 28
19211 24011 24014 28
19212 24011 24015 28
19213 24016 24017 28
19214 24016 24018 28
19215 24016 24019 28
19216 24016 24020 28
19217 24021 24022 28
19218 24021 24023 28
19219 24021 24024 28
19220 24021 24025 28
19221 24026 24027 28
19222 24026 24028 28
19223 24026 24029 28
19224 24026 24030 28
19225 24031 24032 28
19226 24031 24033 28
19227 24031 24034 28
19228 24031 24035 28
19229 24036 24037 28
19230 24036 24038 28
19231 24036 24039 28
19232 24036 24040 28
19233 24041 24042 28
19234 24041 24043 28
19235 24041 24044 28
19236 24041 24045 28
19237 24046 24047 28
19238 24046 24048 28
19239 24046 24049 28
19240 24046 24050 28
19241 24051 24052 28
19242 24051 24053 28
19243 24051 24054 28
19244 24051 24055 28
19245 24056 24057 28
19246 24056 24058 28
19247 24056 24059 28
19248 24056 24060 28
19249 24061 24062 28
19250 24061 24063 28
19251 24061 24064 28
19252 24061 24065 28
19253 24066 24067 28
19254 24066 24068 28
19255 24066 24069 28
19256 24066 24070 28
19257 24071 24072 28
19258 24071 24073 28
19259 24071 24074 28
19260 24071 24075 28
19261 24076 24077 28
19262 24076 24078 28
19263 24076 24079 28
19264 24076 24080 28
19265 24081 24082 28
19266 24081 24083 28
19267 24081 24084 28
19268 24081 24085 28
19269 24086 24087 28
19270 24086 24088 28
19271 24086 24089 28
19272 24086 24090 28
19273 24091 24092 28
19274 24091 24093 28
19275 24091 24094 28
19276 24091 24095 28
19277 24096 24097 28
19278 24096 24098 28
19279 24096 24099 28
19280 24096 24100 28
19281 24101 24102 28
19282 24101 24103 28
19283 24101 24104 28
19284 24101 24105 28
19285 24106 24107 28
19286 24106 24108 28
19287 24106 24109 28
19288 24106 24110 28
19289 24111 24112 28
19290 24111 24113 28
19291 24111 24114 28
19292 24111 24115 28
19293 24116 24117 28
19294 24116 24118 28
19295 24116 24119 28
19296 24116 24120 28
19297 24121 24122 28
19298 24121 24123 28
19299 24121 24124 28
19300 24121 24125 28
19301 24126 24127 28
19302 24126 24128 28
19303 24126 24129 28
19304 24126 24130 28
19305 24131 24132 28
19306 24131 24133 28
19307 24131 24134 28
19308 24131 24135 28
19309 24136 24137 28
19310 24136 24138 28
19311 24136 24139 28
19312 24136 24140 28
19313 24141 24142 28
19314 24141 24143 28
19315 24141 24144 28
19316 24141 24145 28
19317 24146 24147 28
19318 24146 24148 28
19319 24146 24149 28
19320 24146 24150 28
19321 24151 24152 28
19322 24151 24153 28
19323 24151 24154 28
19324 24151 24155 28
19325 24156 24157 28
19326 24156 24158 28
19327 24156 24159 28
19328 24156 24160 28
19329 24161 24162 28
19330 24161 24163 28
19331 24161 24164 28
19332 24161 24165 28
19333 24166 24167 28
19334 24166 24168 28
19335 24166 24169 28
19336 24166 24170 28
19337 24171 24172 28
19338 24171 24173 28
19339 24171 24174 28
19340 24171 24175 28
19341 24176 24177 28
19342 24176 24178 28
19343 24176 24179 28
19344 24176 24180 28
19345 24181 24182 28
19346 24181 24183 28
19347 24181 24184 28
19348 24181 24185 28
19349 24186 24187 28
19350 24186 24188 28
19351 24186 24189 28
19352 24186 24190 28
19353 24191 24192 28
19354 24191 24193 28
19355 24191 24194 28
19356 24191 24195 28
19357 24196 24197 28
19358 24196 24198 28
19359 24196 24199 28
19360 24196 24200 28
19361 24201 24202 28
19362 24201 24203 28
19363 24201 24204 28
19364 24201 24205 28
19365 24206 24207 28
19366 24206 24208 28
19367 24206 24209 28
19368 24206 24210 28
19369 24211 24212 28
19370 24211 24213 28
19371 24211 24214 28
19372 24211 24215 28
19373 24216 24217 28
19374 24216 24218 28
19375 24216 24219 28
19376 24216 24220 28
19377 24221 24222 28
19378 24221 24223 28
19379 24221 24224 28
19380 24221 24225 28
19381 24226 24227 28
19382 24226 24228 28
19383 24226 24229 28
19384 24226 24230 28
19385 24231 24232 28
19386 24231 24233 28
19387 24231 24234 28
19388 24231 24235 28
19389 24236 24237 28
19390 24236 24238 28
19391 24236 24239 28
19392 24236 24240 28
19393 24241 24242 28
19394 24241 24243 28
19395 24241 24244 28
19396 24241 24245 28
19397 24246 24247 28
19398 24246 24248 28
19399 24246 24249 28
19400 24246 24250 28
19401 24251 24252 28
19402 24251 24253 28
19403 24251 24254 28
19404 24251 24255 28
19405 24256 24257 28
19406 24256 24258 28
19407 24256 24259 28
19408 24256 24260 28
19409 24261 24262 28
19410 24261 24263 28
19411 24261 24264 28
19412 24261 24265 28
19413 24266 24267 28
19414 24266 24268 28
19415 24266 24269 28
19416 24266 24270 28
19417 24271 24272 28
19418 24271 24273 28
19419 24271 24274 28
19420 24271 24275 28
19421 24276 24277 28
19422 24276 24278 28
19423 24276 24279 28
19424 24276 24280 28
19425 24281 24282 28
19426 24281 24283 28
19427 24281 24284 28
19428 24281 24285 28
19429 24286 24287 28
19430 24286 24288 28
19431 24286 24289 28
19432 24286 24290 28
19433 24291 24292 28
19434 24291 24293 28
19435 24291 24294 28
19436 24291 24295 28
19437 24296 24297 28
19438 24296 24298 28
19439 24296 24299 28
19440 24296 24300 28
19441 24301 24302 28
19442 24301 24303 28
19443 24301 24304 28
19444 24301 24305 28
19445 24306 24307 28
19446 24306 24308 28
19447 24306 24309 28
19448 24306 24310 28
19449 24311 24312 28
19450 24311 24313 28
19451 24311 24314 28
19452 24311 24315 28
19453 24316 24317 28
19454 24316 24318 28
19455 24316 24319 28
19456 24316 24320 28
19457 24321 24322 28
19458 24321 24323 28
19459 24321 24324 28
19460 24321 24325 28
19461 24326 24327 28
19462 24326 24328 28
19463 24326 24329 28
19464 24326 24330 28
19465 24331 24332 28
19466 24331 24333 28
19467 24331 24334 28
19468 24331 24335 28
19469 24336 24337 28
19470 24336 24338 28
19471 24336 24339 28
19472 24336 24340 28
19473 24341 24342 28
19474 24341 24343 28
19475 24341 24344 28
19476 24341 24345 28
19477 24346 24347 28
19478 24346 24348 28
19479 24346 24349 28
19480 24346 24350 28
19481 24351 24352 28
19482 24351 24353 28
19483 24351 24354 28
19484 24351 24355 28
19485 24356 24357 28
19486 24356 24358 28
19487 24356 24359 28
19488 24356 24360 28
19489 24361 24362 28
19490 24361 24363 28
19491 24361 24364 28
19492 24361 24365 28
19493 24366 24367 28
19494 24366 24368 28
19495 24366 24369 28
19496 24366 24370 28
19497 24371 24372 28
19498 24371 24373 28
19499 24371 24374 28
19500 24371 24375 28
19501 24376 24377 28
19502 24376 24378 28
19503 24376 24379 28
19504 24376 24380 28
19505 24381 24382 28
19506 24381 24383 28
19507 24381 24384 28
19508 24381 24385 28
19509 24386 24387 28
19510 24386 24388 28
19511 24386 24389 28
19512 24386 24390 28
19513 24391 24392 28
19514 24391 24393 28
19515 24391 24394 28
19516 24391 24395 28
19517 24396 24397 28
19518 24396 24398 28
19519 24396 24399 28
19520 24396 24400 28
19521 24401 24402 28
19522 24401 24403 28
19523 24401 24404 28
19524 24401 24405 28
19525 24406 24407 28
19526 24406 24408 28
19527 24406 24409 28
19528 24406 24410 28
19529 24411 24412 28
19530 24411 24413 28
19531 24411 24414 28
19532 24411 24415 28
19533 24416 24417 28
19534 24416 24418 28
19535 24416 24419 28
19536 24416 24420 28
19537 24421 24422 28
19538 24421 24423 28
19539 24421 24424 28
19540 24421 24425 28
19541 24426 24427 28
19542 24426 24428 28
19543 24426 24429 28
19544 24426 24430 28
19545 24431 24432 28
19546 24431 24433 28
19547 24431 24434 28
19548 24431 24435 28
19549 24436 24437 28
19550 24436 24438 28
19551 24436 24439 28
19552 24436 24440 28
19553 24441 24442 28
19554 24441 24443 28
19555 24441 24444 28
19556 24441 24445 28
19557 24446 24447 28
19558 24446 24448 28
19559 24446 24449 28
19560 24446 24450 28
19561 24451 24452 28
19562 24451 24453 28
19563 24451 24454 28
19564 24451 24455 28
19565 24456 24457 28
19566 24456 24458 28
19567 24456 24459 28
19568 24456 24460 28
19569 24461 24462 28
19570 24461 24463 28
19571 24461 24464 28
19572 24461 24465 28
19573 24466 24467 28
19574 24466 24468 28
19575 24466 24469 28
19576 24466 24470 28
19577 24471 24472 28
19578 24471 24473 28
19579 24471 24474 28
19580 24471 24475 28
19581 24476 24477 28
19582 24476 24478 28
19583 24476 24479 28
19584 24476 24480 28
19585 24481 24482 28
19586 24481 24483 28
19587 24481 24484 28
19588 24481 24485 28
19589 24486 24487 28
19590 24486 24488 28
19591 24486 24489 28
19592 24486 24490 28
19593 24491 24492 28
19594 24491 24493 28
19595 24491 24494 28
19596 24491 24495 28
19597 24496 24497 28
19598 24496 24498 28
19599 24496 24499 28
19600 24496 24500 28
19601 24501 24502 28
19602 24501 24503 28
19603 24501 24504 28
19604 24501 24505 28
19605 24506 24507 28
19606 24506 24508 28
19607 24506 24509 28
19608 24506 24510 28
19609 24511 24512 28
19610 24511 24513 28
19611 24511 24514 28
19612 24511 24515 28
19613 24516 24517 28
19614 24516 24518 28
19615 24516 24519 28
19616 24516 24520 28
19617 24521 24522 28
19618 24521 24523 28
19619 24521 24524 28
19620 24521 24525 28
19621 24526 24527 28
19622 24526 24528 28
19623 24526 24529 28
19624 24526 24530 28
19625 24531 24532 28
19626 24531 24533 28
19627 24531 24534 28
19628 24531 24535 28
19629 24536 24537 28
19630 24536 24538 28
19631 24536 24539 28
19632 24536 24540 28
19633 24541 24542 28
19634 24541 24543 28
19635 24541 24544 28
19636 24541 24545 28
19637 24546 24547 28
19638 24546 24548 28
19639 24546 24549 28
19640 24546 24550 28
19641 24551 24552 28
19642 24551 24553 28
19643 24551 24554 28
19644 24551 24555 28
19645 24556 24557 28
19646 24556 24558 28
19647 24556 24559 28
19648 24556 24560 28
19649 24561 24562 28
19650 24561 24563 28
19651 24561 24564 28
19652 24561 24565 28
19653 24566 24567 28
19654 24566 24568 28
19655 24566 24569 28
19656 24566 24570 28
19657 24571 24572 28
19658 24571 24573 28
19659 24571 24574 28
19660 24571 24575 28
19661 24576 24577 28
19662 24576 24578 28
19663 24576 24579 28
19664 24576 24580 28
19665 24581 24582 28
19666 24581 24583 28
19667 24581 24584 28
19668 24581 24585 28
19669 24586 24587 28
19670 24586 24588 28
19671 24586 24589 28
19672 24586 24590 28
19673 24591 24592 28
19674 24591 24593 28
19675 24591 24594 28
19676 24591 24595 28
19677 24596 24597 28
19678 24596 24598 28
19679 24596 24599 28
19680 24596 24600 28
19681 24601 24602 28
19682 24601 24603 28
19683 24601 24604 28
19684 24601 24605 28
19685 24606 24607 28
19686 24606 24608 28
19687 24606 24609 28
19688 24606 24610 28
19689 24611 24612 28
19690 24611 24613 28
19691 24611 24614 28
19692 24611 24615 28
19693 24616 24617 28
19694 24616 24618 28
19695 24616 24619 28
19696 24616 24620 28
19697 24621 24622 28
19698 24621 24623 28
19699 24621 24624 28
19700 24621 24625 28
19701 24626 24627 28
19702 24626 24628 28
19703 24626 24629 28
19704 24626 24630 28
19705 24631 24632 28
19706 24631 24633 28
19707 24631 24634 28
19708 24631 24635 28
19709 24636 24637 28
19710 24636 24638 28
19711 24636 24639 28
19712 24636 24640 28
19713 24641 24642 28
19714 24641 24643 28
19715 24641 24644 28
19716 24641 24645 28
19717 24646 24647 28
19718 24646 24648 28
19719 24646 24649 28
19720 24646 24650 28
19721 24651 24652 28
19722 24651 24653 28
19723 24651 24654 28
19724 24651 24655 28
19725 24656 24657 28
19726 24656 24658 28
19727 24656 24659 28
19728 24656 24660 28
19729 24661 24662 28
19730 24661 24663 28
19731 24661 24664 28
19732 24661 24665 28
19733 24666 24667 28
19734 24666 24668 28
19735 24666 24669 28
19736 24666 24670 28
19737 24671 24672 28
19738 24671 24673 28
19739 24671 24674 28
19740 24671 24675 28
19741 24676 24677 28
19742 24676 24678 28
19743 24676 24679 28
19744 24676 24680 28
19745 24681 24682 28
19746 24681 24683 28
19747 24681 24684 28
19748 24681 24685 28
19749 24686 24687 28
19750 24686 24688 28
19751 24686 24689 28
19752 24686 24690 28
19753 24691 24692 28
19754 24691 24693 28
19755 24691 24694 28
19756 24691 24695 28
19757 24696 24697 28
19758 24696 24698 28
19759 24696 24699 28
19760 24696 24700 28
19761 24701 24702 28
19762 24701 24703 28
19763 24701 24704 28
19764 24701 24705 28
19765 24706 24707 28
19766 24706 24708 28
19767 24706 24709 28
19768 24706 24710 28
19769 24711 24712 28
19770 24711 24713 28
19771 24711 24714 28
19772 24711 24715 28
19773 24716 24717 28
19774 24716 24718 28
19775 24716 24719 28
19776 24716 24720 28
19777 24721 24722 28
19778 24721 24723 28
19779 24721 24724 28
19780 24721 24725 28
19781 24726 24727 28
19782 24726 24728 28
19783 24726 24729 28
19784 24726 24730 28
19785 24731 24732 28
19786 24731 24733 28
19787 24731 24734 28
19788 24731 24735 28
19789 24736 24737 28
19790 24736 24738 28
19791 24736 24739 28
19792 24736 24740 28
19793 24741 24742 28
19794 24741 24743 28
19795 24741 24744 28
19796 24741 24745 28
19797 24746 24747 28
19798 24746 24748 28
19799 24746 24749 28
19800 24746 24750 28
19801 24751 24752 28
19802 24751 24753 28
19803 24751 24754 28
19804 24751 24755 28
19805 24756 24757 28
19806 24756 24758 28
19807 24756 24759 28
19808 24756 24760 28
19809 24761 24762 28
19810 24761 24763 28
19811 24761 24764 28
19812 24761 24765 28
19813 24766 24767 28
19814 24766 24768 28
19815 24766 24769 28
19816 24766 24770 28
19817 24771 24772 28
19818 24771 24773 28
19819 24771 24774 28
19820 24771 24775 28
19821 24776 24777 28
19822 24776 24778 28
19823 24776 24779 28
19824 24776 24780 28
19825 24781 24782 28
19826 24781 24783 28
19827 24781 24784 28
19828 24781 24785 28
19829 24786 24787 28
19830 24786 24788 28
19831 24786 24789 28
19832 24786 24790 28
19833 24791 24792 28
19834 24791 24793 28
19835 24791 24794 28
19836 24791 24795 28
19837 24796 24797 28
19838 24796 24798 28
19839 24796 24799 28
19840 24796 24800 28
19841 24801 24802 28
19842 24801 24803 28
19843 24801 24804 28
19844 24801 24805 28
19845 24806 24807 28
19846 24806 24808 28
19847 24806 24809 28
19848 24806 24810 28
19849 24811 24812 28
19850 24811 24813 28
19851 24811 24814 28
19852 24811 24815 28
19853 24816 24817 28
19854 24816 24818 28
19855 24816 24819 28
19856 24816 24820 28
19857 24821 24822 28
19858 24821 24823 28
19859 24821 24824 28
19860 24821 24825 28
19861 24826 24827 28
19862 24826 24828 28
19863 24826 24829 28
19864 24826 24830 28
19865 24831 24832 28
19866 24831 24833 28
19867 24831 24834 28
19868 24831 24835 28
19869 24836 24837 28
19870 24836 24838 28
19871 24836 24839 28
19872 24836 24840 28
19873 24841 24842 28
19874 24841 24843 28
19875 24841 24844 28
19876 24841 24845 28
19877 24846 24847 28
19878 24846 24848 28
19879 24846 24849 28
19880 24846 24850 28
19881 24851 24852 28
19882 24851 24853 28
19883 24851 24854 28
19884 24851 24855 28
19885 24856 24857 28
19886 24856 24858 28
19887 24856 24859 28
19888 24856 24860 28
19889 24861 24862 28
19890 24861 24863 28
19891 24861 24864 28
19892 24861 24865 28
19893 24866 24867 28
19894 24866 24868 28
19895 24866 24869 28
19896 24866 24870 28
19897 24871 24872 28
19898 24871 24873 28
19899 24871 24874 28
19900 24871 24875 28
19901 24876 24877 28
19902 24876 24878 28
19903 24876 24879 28
19904 24876 24880 28
19905 24881 24882 28
19906 24881 24883 28
19907 24881 24884 28
19908 24881 24885 28
19909 24886 24887 28
19910 24886 24888 28
19911 24886 24889 28
19912 24886 24890 28
19913 24891 24892 28
19914 24891 24893 28
19915 24891 24894 28
19916 24891 24895 28
19917 24896 24897 28
19918 24896 24898 28
19919 24896 24899 28
19920 24896 24900 28
19921 24901 24902 28
19922 24901 24903 28
19923 24901 24904 28
19924 24901 24905 28
19925 24906 24907 28
19926 24906 24908 28
19927 24906 24909 28
19928 24906 24910 28
19929 24911 24912 28
19930 24911 24913 28
19931 24911 24914 28
19932 24911 24915 28
19933 24916 24917 28
19934 24916 24918 28
19935 24916 24919 28
19936 24916 24920 28
19937 24921 24922 28
19938 24921 24923 28
19939 24921 24924 28
19940 24921 24925 28
19941 24926 24927 28
19942 24926 24928 28
19943 24926 24929 28
19944 24926 24930 28
19945 24931 24932 28
19946 24931 24933 28
19947 24931 24934 28
19948 24931 24935 28
19949 24936 24937 28
19950 24936 24938 28
19951 24936 24939 28
19952 24936 24940 28
19953 24941 24942 28
19954 24941 24943 28
19955 24941 24944 28
19956 24941 24945 28
19957 24946 24947 28
19958 24946 24948 28
19959 24946 24949 28
19960 24946 24950 28
19961 24951 24952 28
19962 24951 24953 28
19963 24951 24954 28
19964 24951 24955 28
19965 24956 24957 28
19966 24956 24958 28
19967 24956 24959 28
19968 24956 24960 28
19969 24961 24962 28
19970 24961 24963 28
19971 24961 24964 28
19972 24961 24965 28
19973 24966 24967 28
19974 24966 24968 28
19975 24966 24969 28
19976 24966 24970 28
19977 24971 24972 28
19978 24971 24973 28
19979 24971 24974 28
19980 24971 24975 28
19981 24976 24977 28
19982 24976 24978 28
19983 24976 24979 28
19984 24976 24980 28
19985 24981 24982 28
19986 24981 24983 28
19987 24981 24984 28
19988 24981 24985 28
19989 24986 24987 28
19990 24986 24988 28
19991 24986 24989 28
19992 24986 24990 28
19993 24991 24992 28
19994 24991 24993 28
19995 24991 24994 28
19996 24991 24995 28
19997 24996 24997 28
19998 24996 24998 28
19999 24996 24999 28
20000 24996 25000 28
20001 25001 25002 28
20002 25001 25003 28
20003 25001 25004 28
20004 25001 25005 28
20005 25006 25007 28
20006 25006 25008 28
20007 25006 25009 28
20008 25006 25010 28
20009 25011 25012 28
20010 25011 25013 28
20011 25011 25014 28
20012 25011 25015 28
20013 25016 25017 28
20014 25016 25018 28
20015 25016 25019 28
20016 25016 25020 28
20017 25021 25022 28
20018 25021 25023 28
20019 25021 25024 28
20020 25021 25025 28
20021 25026 25027 28
20022 25026 25028 28
20023 25026 25029 28
20024 25026 25030 28
20025 25031 25032 28
20026 25031 25033 28
20027 25031 25034 28
20028 25031 25035 28
20029 25036 25037 28
20030 25036 25038 28
20031 25036 25039 28
20032 25036 25040 28
20033 25041 25042 28
20034 25041 25043 28
20035 25041 25044 28
20036 25041 25045 28
20037 25046 25047 28
20038 25046 25048 28
20039 25046 25049 28
20040 25046 25050 28
20041 25051 25052 28
20042 25051 25053 28
20043 25051 25054 28
20044 25051 25055 28
20045 25056 25057 28
20046 25056 25058 28
20047 25056 25059 28
20048 25056 25060 28
20049 25061 25062 28
20050 25061 25063 28
20051 25061 25064 28
20052 25061 25065 28
20053 25066 25067 28
20054 25066 25068 28
20055 25066 25069 28
20056 25066 25070 28
20057 25071 25072 28
20058 25071 25073 28
20059 25071 25074 28
20060 25071 25075 28
20061 25076 25077 28
20062 25076 25078 28
20063 25076 25079 28
20064 25076 25080 28
20065 25081 25082 28
20066 25081 25083 28
20067 25081 25084 28
20068 25081 25085 28
20069 25086 25087 28
20070 25086 25088 28
20071 25086 25089 28
20072 25086 25090 28
20073 25091 25092 28
20074 25091 25093 28
20075 25091 25094 28
20076 25091 25095 28
20077 25096 25097 28
20078 25096 25098 28
20079 25096 25099 28
20080 25096 25100 28
20081 25101 25102 28
20082 25101 25103 28
20083 25101 25104 28
20084 25101 25105 28
20085 25106 25107 28
20086 25106 25108 28
20087 25106 25109 28
20088 25106 25110 28
20089 25111 25112 28
20090 25111 25113 28
20091 25111 25114 28
20092 25111 25115 28
20093 25116 25117 28
20094 25116 25118 28
20095 25116 25119 28
20096 25116 25120 28
20097 25121 25122 28
20098 25121 25123 28
20099 25121 25124 28
20100 25121 25125 28
20101 25126 25127 28
20102 25126 25128 28
20103 25126 25129 28
20104 25126 25130 28
20105 25131 25132 28
20106 25131 25133 28
20107 25131 25134 28
20108 25131 25135 28
20109 25136 25137 28
20110 25136 25138 28
20111 25136 25139 28
20112 25136 25140 28
20113 25141 25142 28
20114 25141 25143 28
20115 25141 25144 28
20116 25141 25145 28
20117 25146 25147 28
20118 25146 25148 28
20119 25146 25149 28
20120 25146 25150 28
20121 25151 25152 28
20122 25151 25153 28
20123 25151 25154 28
20124 25151 25155 28
20125 25156 25157 28
20126 25156 25158 28
20127 25156 25159 28
20128 25156 25160 28
20129 25161 25162 28
20130 25161 25163 28
20131 25161 25164 28
20132 25161 25165 28
20133 25166 25167 28
20134 25166 25168 28
20135 25166 25169 28
20136 25166 25170 28
20137 25171 25172 28
20138 25171 25173 28
20139 25171 25174 28
20140 25171 25175 28
20141 25176 25177 28
20142 25176 25178 28
20143 25176 25179 28
20144 25176 25180 28
20145 25181 25182 28
20146 25181 25183 28
20147 25181 25184 28
20148 25181 25185 28
20149 25186 25187 28
20150 25186 25188 28
20151 25186 25189 28
20152 25186 25190 28
20153 25191 25192 28
20154 25191 25193 28
20155 25191 25194 28
20156 25191 25195 28
20157 25196 25197 28
20158 25196 25198 28
20159 25196 25199 28
20160 25196 25200 28
20161 25201 25202 28
20162 25201 25203 28
20163 25201 25204 28
20164 25201 25205 28
20165 25206 25207 28
20166 25206 25208 28
20167 25206 25209 28
20168 25206 25210 28
20169 25211 25212 28
20170 25211 25213 28
20171 25211 25214 28
20172 25211 25215 28
20173 25216 25217 28
20174 25216 25218 28
20175 25216 25219 28
20176 25216 25220 28
20177 25221 25222 28
20178 25221 25223 28
20179 25221 25224 28
20180 25221 25225 28
20181 25226 25227 28
20182 25226 25228 28
20183 25226 25229 28
20184 25226 25230 28
20185 25231 25232 28
20186 25231 25233 28
20187 25231 25234 28
20188 25231 25235 28
20189 25236 25237 28
20190 25236 25238 28
20191 25236 25239 28
20192 25236 25240 28
20193 25241 25242 28
20194 25241 25243 28
20195 25241 25244 28
20196 25241 25245 28
20197 25246 25247 28
20198 25246 25248 28
20199 25246 25249 28
20200 25246 25250 28
20201 25251 25252 28
20202 25251 25253 28
20203 25251 25254 28
20204 25251 25255 28
20205 25256 25257 28
20206 25256 25258 28
20207 25256 25259 28
20208 25256 25260 28
20209 25261 25262 28
20210 25261 25263 28
20211 25261 25264 28
20212 25261 25265 28
20213 25266 25267 28
20214 25266 25268 28
20215 25266 25269 28
20216 25266 25270 28
20217 25271 25272 28
20218 25271 25273 28
20219 25271 25274 28
20220 25271 25275 28
20221 25276 25277 28
20222 25276 25278 28
20223 25276 25279 28
20224 25276 25280 28
20225 25281 25282 28
20226 25281 25283 28
20227 25281 25284 28
20228 25281 25285 28
20229 25286 25287 28
20230 25286 25288 28
20231 25286 25289 28
20232 25286 25290 28
20233 25291 25292 28
20234 25291 25293 28
20235 25291 25294 28
20236 25291 25295 28
20237 25296 25297 28
20238 25296 25298 28
20239 25296 25299 28
20240 25296 25300 28
20241 25301 25302 28
20242 25301 25303 28
20243 25301 25304 28
20244 25301 25305 28
20245 25306 25307 28
20246 25306 25308 28
20247 25306 25309 28
20248 25306 25310 28
20249 25311 25312 28
20250 25311 25313 28
20251 25311 25314 28
20252 25311 25315 28
20253 25316 25317 28
20254 25316 25318 28
20255 25316 25319 28
20256 25316 25320 28
20257 25321 25322 28
20258 25321 25323 28
20259 25321 25324 28
20260 25321 25325 28
20261 25326 25327 28
20262 25326 25328 28
20263 25326 25329 28
20264 25326 25330 28
20265 25331 25332 28
20266 25331 25333 28
20267 25331 25334 28
20268 25331 25335 28
20269 25336 25337 28
20270 25336 25338 28
20271 25336 25339 28
20272 25336 25340 28
20273 25341 25342 28
20274 25341 25343 28
20275 25341 25344 28
20276 25341 25345 28
20277 25346 25347 28
20278 25346 25348 28
20279 25346 25349 28
20280 25346 25350 28
20281 25351 25352 28
20282 25351 25353 28
20283 25351 25354 28
20284 25351 25355 28
20285 25356 25357 28
20286 25356 25358 28
20287 25356 25359 28
20288 25356 25360 28
20289 25361 25362 28
20290 25361 25363 28
20291 25361 25364 28
20292 25361 25365 28
20293 25366 25367 28
20294 25366 25368 28
20295 25366 25369 28
20296 25366 25370 28
20297 25371 25372 28
20298 25371 25373 28
20299 25371 25374 28
20300 25371 25375 28
20301 25376 25377 28
20302 25376 25378 28
20303 25376 25379 28
20304 25376 25380 28
20305 25381 25382 28
20306 25381 25383 28
20307 25381 25384 28
20308 25381 25385 28
20309 25386 25387 28
20310 25386 25388 28
20311 25386 25389 28
20312 25386 25390 28
20313 25391 25392 28
20314 25391 25393 28
20315 25391 25394 28
20316 25391 25395 28
20317 25396 25397 28
20318 25396 25398 28
20319 25396 25399 28
20320 25396 25400 28
20321 25401 25402 28
20322 25401 25403 28
20323 25401 25404 28
20324 25401 25405 28
20325 25406 25407 28
20326 25406 25408 28
20327 25406 25409 28
20328 25406 25410 28
20329 25411 25412 28
20330 25411 25413 28
20331 25411 25414 28
20332 25411 25415 28
20333 25416 25417 28
20334 25416 25418 28
20335 25416 25419 28
20336 25416 25420 28
20337 25421 25422 28
20338 25421 25423 28
20339 25421 25424 28
20340 25421 25425 28
20341 25426 25427 28
20342 25426 25428 28
20343 25426 25429 28
20344 25426 25430 28
20345 25431 25432 28
20346 25431 25433 28
20347 25431 25434 28
20348 25431 25435 28
20349 25436 25437 28
20350 25436 25438 28
20351 25436 25439 28
20352 25436 25440 28
20353 25441 25442 28
20354 25441 25443 28
20355 25441 25444 28
20356 25441 25445 28
20357 25446 25447 28
20358 25446 25448 28
20359 25446 25449 28
20360 25446 25450 28
20361 25451 25452 28
20362 25451 25453 28
20363 25451 25454 28
20364 25451 25455 28
20365 25456 25457 28
20366 25456 25458 28
20367 25456 25459 28
20368 25456 25460 28
20369 25461 25462 28
20370 25461 25463 28
20371 25461 25464 28
20372 25461 25465 28
20373 25466 25467 28
20374 25466 25468 28
20375 25466 25469 28
20376 25466 25470 28
20377 25471 25472 28
20378 25471 25473 28
20379 25471 25474 28
20380 25471 25475 28
20381 25476 25477 28
20382 25476 25478 28
20383 25476 25479 28
20384 25476 25480 28
20385 25481 25482 28
20386 25481 25483 28
20387 25481 25484 28
20388 25481 25485 28
20389 25486 25487 28
20390 25486 25488 28
20391 25486 25489 28
20392 25486 25490 28
20393 25491 25492 28
20394 25491 25493 28
20395 25491 25494 28
20396 25491 25495 28
20397 25496 25497 28
20398 25496 25498 28
20399 25496 25499 28
20400 25496 25500 28
20401 25501 25502 28
20402 25501 25503 28
20403 25501 25504 28
20404 25501 25505 28
20405 25506 25507 28
20406 25506 25508 28
20407 25506 25509 28
20408 25506 25510 28
20409 25511 25512 28
20410 25511 25513 28
20411 25511 25514 28
20412 25511 25515 28
20413 25516 25517 28
20414 25516 25518 28
20415 25516 25519 28
20416 25516 25520 28
20417 25521 25522 28
20418 25521 25523 28
20419 25521 25524 28
20420 25521 25525 28
20421 25526 25527 28
20422 25526 25528 28
20423 25526 25529 28
20424 25526 25530 28
20425 25531 25532 28
20426 25531 25533 28
20427 25531 25534 28
20428 25531 25535 28
20429 25536 25537 28
20430 25536 25538 28
20431 25536 25539 28
20432 25536 25540 28
20433 25541 25542 28
20434 25541 25543 28
20435 25541 25544 28
20436 25541 25545 28
20437 25546 25547 28
20438 25546 25548 28
20439 25546 25549 28
20440 25546 25550 28
20441 25551 25552 28
20442 25551 25553 28
20443 25551 25554 28
20444 25551 25555 28
20445 25556 25557 28
20446 25556 25558 28
20447 25556 25559 28
20448 25556 25560 28
20449 25561 25562 28
20450 25561 25563 28
20451 25561 25564 28
20452 25561 25565 28
20453 25566 25567 28
20454 25566 25568 28
20455 25566 25569 28
20456 25566 25570 28
20457 25571 25572 28
20458 25571 25573 28
20459 25571 25574 28
20460 25571 25575 28
20461 25576 25577 28
20462 25576 25578 28
20463 25576 25579 28
20464 25576 25580 28
20465 25581 25582 28
20466 25581 25583 28
20467 25581 25584 28
20468 25581 25585 28
20469 25586 25587 28
20470 25586 25588 28
20471 25586 25589 28
20472 25586 25590 28
20473 25591 25592 28
20474 25591 25593 28
20475 25591 25594 28
20476 25591 25595 28
20477 25596 25597 28
20478 25596 25598 28
20479 25596 25599 28
20480 25596 25600 28
20481 25601 25602 28
20482 25601 25603 28
20483 25601 25604 28
20484 25601 25605 28
20485 25606 25607 28
20486 25606 25608 28
20487 25606 25609 28
20488 25606 25610 28
20489 25611 25612 28
20490 25611 25613 28
20491 25611 25614 28
20492 25611 25615 28
20493 25616 25617 28
20494 25616 25618 28
20495 25616 25619 28
20496 25616 25620 28
20497 25621 25622 28
20498 25621 25623 28
20499 25621 25624 28
20500 25621 25625 28
20501 25626 25627 28
20502 25626 25628 28
20503 25626 25629 28
20504 25626 25630 28
20505 25631 25632 28
20506 25631 25633 28
20507 25631 25634 28
20508 25631 25635 28
20509 25636 25637 28
20510 25636 25638 28
20511 25636 25639 28
20512 25636 25640 28
20513 25641 25642 28
20514 25641 25643 28
20515 25641 25644 28
20516 25641 25645 28
20517 25646 25647 28
20518 25646 25648 28
20519 25646 25649 28
20520 25646 25650 28
20521 25651 25652 28
20522 25651 25653 28
20523 25651 25654 28
20524 25651 25655 28
20525 25656 25657 28
20526 25656 25658 28
20527 25656 25659 28
20528 25656 25660 28
20529 25661 25662 28
20530 25661 25663 28
20531 25661 25664 28
20532 25661 25665 28
20533 25666 25667 28
20534 25666 25668 28
20535 25666 25669 28
20536 25666 25670 28
20537 25671 25672 28
20538 25671 25673 28
20539 25671 25674 28
20540 25671 25675 28
20541 25676 25677 28
20542 25676 25678 28
20543 25676 25679 28
20544 25676 25680 28
20545 25681 25682 28
20546 25681 25683 28
20547 25681 25684 28
20548 25681 25685 28
20549 25686 25687 28
20550 25686 25688 28
20551 25686 25689 28
20552 25686 25690 28
20553 25691 25692 28
20554 25691 25693 28
20555 25691 25694 28
20556 25691 25695 28
20557 25696 25697 28
20558 25696 25698 28
20559 25696 25699 28
20560 25696 25700 28
20561 25701 25702 28
20562 25701 25703 28
20563 25701 25704 28
20564 25701 25705 28
20565 25706 25707 28
20566 25706 25708 28
20567 25706 25709 28
20568 25706 25710 28
20569 25711 25712 28
20570 25711 25713 28
20571 25711 25714 28
20572 25711 25715 28
20573 25716 25717 28
20574 25716 25718 28
20575 25716 25719 28
20576 25716 25720 28
20577 25721 25722 28
20578 25721 25723 28
20579 25721 25724 28
20580 25721 25725 28
20581 25726 25727 28
20582 25726 25728 28
20583 25726 25729 28
20584 25726 25730 28
20585 25731 25732 28
20586 25731 25733 28
20587 25731 25734 28
20588 25731 25735 28
20589 25736 25737 28
20590 25736 25738 28
20591 25736 25739 28
20592 25736 25740 28
20593 25741 25742 28
20594 25741 25743 28
20595 25741 25744 28
20596 25741 25745 28
20597 25746 25747 28
20598 25746 25748 28
20599 25746 25749 28
20600 25746 25750 28
20601 25751 25752 28
20602 25751 25753 28
20603 25751 25754 28
20604 25751 25755 28
20605 25756 25757 28
20606 25756 25758 28
20607 25756 25759 28
20608 25756 25760 28
20609 25761 25762 28
20610 25761 25763 28
20611 25761 25764 28
20612 25761 25765 28
20613 25766 25767 28
20614 25766 25768 28
20615 25766 25769 28
20616 25766 25770 28
20617 25771 25772 28
20618 25771 25773 28
20619 25771 25774 28
20620 25771 25775 28
20621 25776 25777 28
20622 25776 25778 28
20623 25776 25779 28
20624 25776 25780 28
20625 25781 25782 28
20626 25781 25783 28
20627 25781 25784 28
20628 25781 25785 28
20629 25786 25787 28
20630 25786 25788 28
20631 25786 25789 28
20632 25786 25790 28
20633 25791 25792 28
20634 25791 25793 28
20635 25791 25794 28
20636 25791 25795 28
20637 25796 25797 28
20638 25796 25798 28
20639 25796 25799 28
20640 25796 25800 28
20641 25801 25802 28
20642 25801 25803 28
20643 25801 25804 28
20644 25801 25805 28
20645 25806 25807 28
20646 25806 25808 28
20647 25806 25809 28
20648 25806 25810 28
20649 25811 25812 28
20650 25811 25813 28
20651 25811 25814 28
20652 25811 25815 28
20653 25816 25817 28
20654 25816 25818 28
20655 25816 25819 28
20656 25816 25820 28
20657 25821 25822 28
20658 25821 25823 28
20659 25821 25824 28
20660 25821 25825 28
20661 25826 25827 28
20662 25826 25828 28
20663 25826 25829 28
20664 25826 25830 28
20665 25831 25832 28
20666 25831 25833 28
20667 25831 25834 28
20668 25831 25835 28
20669 25836 25837 28
20670 25836 25838 28
20671 25836 25839 28
20672 25836 25840 28
20673 25841 25842 28
20674 25841 25843 28
20675 25841 25844 28
20676 25841 25845 28
20677 25846 25847 28
20678 25846 25848 28
20679 25846 25849 28
20680 25846 25850 28
20681 25851 25852 28
20682 25851 25853 28
20683 25851 25854 28
20684 25851 25855 28
20685 25856 25857 28
20686 25856 25858 28
20687 25856 25859 28
20688 25856 25860 28
20689 25861 25862 28
20690 25861 25863 28
20691 25861 25864 28
20692 25861 25865 28
20693 25866 25867 28
20694 25866 25868 28
20695 25866 25869 28
20696 25866 25870 28
20697 25871 25872 28
20698 25871 25873 28
20699 25871 25874 28
20700 25871 25875 28
20701 25876 25877 28
20702 25876 25878 28
20703 25876 25879 28
20704 25876 25880 28
20705 25881 25882 28
20706 25881 25883 28
20707 25881 25884 28
20708 25881 25885 28
20709 25886 25887 28
20710 25886 25888 28
20711 25886 25889 28
20712 25886 25890 28
20713 25891 25892 28
20714 25891 25893 28
20715 25891 25894 28
20716 25891 25895 28
20717 25896 25897 28
20718 25896 25898 28
20719 25896 25899 28
20720 25896 25900 28
20721 25901 25902 28
20722 25901 25903 28
20723 25901 25904 28
20724 25901 25905 28
20725 25906 25907 28
20726 25906 25908 28
20727 25906 25909 28
20728 25906 25910 28
20729 25911 25912 28
20730 25911 25913 28
20731 25911 25914 28
20732 25911 25915 28
20733 25916 25917 28
20734 25916 25918 28
20735 25916 25919 28
20736 25916 25920 28
20737 25921 25922 28
20738 25921 25923 28
20739 25921 25924 28
20740 25921 25925 28
20741 25926 25927 28
20742 25926 25928 28
20743 25926 25929 28
20744 25926 25930 28
20745 25931 25932 28
20746 25931 25933 28
20747 25931 25934 28
20748 25931 25935 28
20749 25936 25937 28
20750 25936 25938 28
20751 25936 25939 28
20752 25936 25940 28
20753 25941 25942 28
20754 25941 25943 28
20755 25941 25944 28
20756 25941 25945 28
20757 25946 25947 28
20758 25946 25948 28
20759 25946 25949 28
20760 25946 25950 28
20761 25951 25952 28
20762 25951 25953 28
20763 25951 25954 28
20764 25951 25955 28
20765 25956 25957 28
20766 25956 25958 28
20767 25956 25959 28
20768 25956 25960 28
20769 25961 25962 28
20770 25961 25963 28
20771 25961 25964 28
20772 25961 25965 28
20773 25966 25967 28
20774 25966 25968 28
20775 25966 25969 28
20776 25966 25970 28
20777 25971 25972 28
20778 25971 25973 28
20779 25971 25974 28
20780 25971 25975 28
20781 25976 25977 28
20782 25976 25978 28
20783 25976 25979 28
20784 25976 25980 28
20785 25981 25982 28
20786 25981 25983 28
20787 25981 25984 28
20788 25981 25985 28
20789 25986 25987 28
20790 25986 25988 28
20791 25986 25989 28
20792 25986 25990 28
20793 25991 25992 28
20794 25991 25993 28
20795 25991 25994 28
20796 25991 25995 28
20797 25996 25997 28
20798 25996 25998 28
20799 25996 25999 28
20800 25996 26000 28
20801 26001 26002 28
20802 26001 26003 28
20803 26001 26004 28
20804 26001 26005 28
20805 26006 26007 28
20806 26006 26008 28
20807 26006 26009 28
20808 26006 26010 28
20809 26011 26012 28
20810 26011 26013 28
20811 26011 26014 28
20812 26011 26015 28
20813 26016 26017 28
20814 26016 26018 28
20815 26016 26019 28
20816 26016 26020 28
20817 26021 26022 28
20818 26021 26023 28
20819 26021 26024 28
20820 26021 26025 28
20821 26026 26027 28
20822 26026 26028 28
20823 26026 26029 28
20824 26026 26030 28
20825 26031 26032 28
20826 26031 26033 28
20827 26031 26034 28
20828 26031 26035 28
20829 26036 26037 28
20830 26036 26038 28
20831 26036 26039 28
20832 26036 26040 28
20833 26041 26042 28
20834 26041 26043 28
20835 26041 26044 28
20836 26041 26045 28
20837 26046 26047 28
20838 26046 26048 28
20839 26046 26049 28
20840 26046 26050 28
20841 26051 26052 28
20842 26051 26053 28
20843 26051 26054 28
20844 26051 26055 28
20845 26056 26057 28
20846 26056 26058 28
20847 26056 26059 28
20848 26056 26060 28
20849 26061 26062 28
20850 26061 26063 28
20851 26061 26064 28
20852 26061 26065 28
20853 26066 26067 28
20854 26066 26068 28
20855 26066 26069 28
20856 26066 26070 28
20857 26071 26072 28
20858 26071 26073 28
20859 26071 26074 28
20860 26071 26075 28
20861 26076 26077 28
20862 26076 26078 28
20863 26076 26079 28
20864 26076 26080 28
20865 26081 26082 28
20866 26081 26083 28
20867 26081 26084 28
20868 26081 26085 28
20869 26086 26087 28
20870 26086 26088 28
20871 26086 26089 28
20872 26086 26090 28
20873 26091 26092 28
20874 26091 26093 28
20875 26091 26094 28
20876 26091 26095 28
20877 26096 26097 28
20878 26096 26098 28
20879 26096 26099 28
20880 26096 26100 28
20881 26101 26102 28
20882 26101 26103 28
20883 26101 26104 28
20884 26101 26105 28
20885 26106 26107 28
20886 26106 26108 28
20887 26106 26109 28
20888 26106 26110 28
20889 26111 26112 28
20890 26111 26113 28
20891 26111 26114 28
20892 26111 26115 28
20893 26116 26117 28
20894 26116 26118 28
20895 26116 26119 28
20896 26116 26120 28
20897 26121 26122 28
20898 26121 26123 28
20899 26121 26124 28
20900 26121 26125 28
20901 26126 26127 28
20902 26126 26128 28
20903 26126 26129 28
20904 26126 26130 28
20905 26131 26132 28
20906 26131 26133 28
20907 26131 26134 28
20908 26131 26135 28
20909 26136 26137 28
20910 26136 26138 28
20911 26136 26139 28
20912 26136 26140 28
20913 26141 26142 28
20914 26141 26143 28
20915 26141 26144 28
20916 26141 26145 28
20917 26146 26147 28
20918 26146 26148 28
20919 26146 26149 28
20920 26146 26150 28
20921 26151 26152 28
20922 26151 26153 28
20923 26151 26154 28
20924 26151 26155 28
20925 26156 26157 28
20926 26156 26158 28
20927 26156 26159 28
20928 26156 26160 28
20929 26161 26162 28
20930 26161 26163 28
20931 26161 26164 28
20932 26161 26165 28
20933 26166 26167 28
20934 26166 26168 28
20935 26166 26169 28
20936 26166 26170 28
20937 26171 26172 28
20938 26171 26173 28
20939 26171 26174 28
20940 26171 26175 28
20941 26176 26177 28
20942 26176 26178 28
20943 26176 26179 28
20944 26176 26180 28
20945 26181 26182 28
20946 26181 26183 28
20947 26181 26184 28
20948 26181 26185 28
20949 26186 26187 28
20950 26186 26188 28
20951 26186 26189 28
20952 26186 26190 28
20953 26191 26192 28
20954 26191 26193 28
20955 26191 26194 28
20956 26191 26195 28
20957 26196 26197 28
20958 26196 26198 28
20959 26196 26199 28
20960 26196 26200 28
20961 26201 26202 28
20962 26201 26203 28
20963 26201 26204 28
20964 26201 26205 28
20965 26206 26207 28
20966 26206 26208 28
20967 26206 26209 28
20968 26206 26210 28
20969 26211 26212 28
20970 26211 26213 28
20971 26211 26214 28
20972 26211 26215 28
20973 26216 26217 28
20974 26216 26218 28
20975 26216 26219 28
20976 26216 26220 28
20977 26221 26222 28
20978 26221 26223 28
20979 26221 26224 28
20980 26221 26225 28
20981 26226 26227 28
20982 26226 26228 28
20983 26226 26229 28
20984 26226 26230 28
20985 26231 26232 28
20986 26231 26233 28
20987 26231 26234 28
20988 26231 26235 28
20989 26236 26237 28
20990 26236 26238 28
20991 26236 26239 28
20992 26236 26240 28
20993 26241 26242 28
20994 26241 26243 28
20995 26241 26244 28
20996 26241 26245 28
20997 26246 26247 28
20998 26246 26248 28
20999 26246 26249 28
21000 26246 26250 28
21001 26251 26252 28
21002 26251 26253 28
21003 26251 26254 28
21004 26251 26255 28
21005 26256 26257 28
21006 26256 26258 28
21007 26256 26259 28
21008 26256 26260 28
21009 26261 26262 28
21010 26261 26263 28
21011 26261 26264 28
21012 26261 26265 28
21013 26266 26267 28
21014 26266 26268 28
21015 26266 26269 28
21016 26266 26270 28
21017 26271 26272 28
21018 26271 26273 28
21019 26271 26274 28
21020 26271 26275 28
21021 26276 26277 28
21022 26276 26278 28
21023 26276 26279 28
21024 26276 26280 28
21025 26281 26282 28
21026 26281 26283 28
21027 26281 26284 28
21028 26281 26285 28
21029 26286 26287 28
21030 26286 26288 28
21031 26286 26289 28
21032 26286 26290 28
21033 26291 26292 28
21034 26291 26293 28
21035 26291 26294 28
21036 26291 26295 28
21037 26296 26297 28
21038 26296 26298 28
21039 26296 26299 28
21040 26296 26300 28
21041 26301 26302 28
21042 26301 26303 28
21043 26301 26304 28
21044 26301 26305 28
21045 26306 26307 28
21046 26306 26308 28
21047 26306 26309 28
21048 26306 26310 28
21049 26311 26312 28
21050 26311 26313 28
21051 26311 26314 28
21052 26311 26315 28
21053 26316 26317 28
21054 26316 26318 28
21055 26316 26319 28
21056 26316 26320 28
21057 26321 26322 28
21058 26321 26323 28
21059 26321 26324 28
21060 26321 26325 28
21061 26326 26327 28
21062 26326 26328 28
21063 26326 26329 28
21064 26326 26330 28
21065 26331 26332 28
21066 26331 26333 28
21067 26331 26334 28
21068 26331 26335 28
21069 26336 26337 28
21070 26336 26338 28
21071 26336 26339 28
21072 26336 26340 28
21073 26341 26342 28
21074 26341 26343 28
21075 26341 26344 28
21076 26341 26345 28
21077 26346 26347 28
21078 26346 26348 28
21079 26346 26349 28
21080 26346 26350 28
21081 26351 26352 28
21082 26351 26353 28
21083 26351 26354 28
21084 26351 26355 28
21085 26356 26357 28
21086 26356 26358 28
21087 26356 26359 28
21088 26356 26360 28
21089 26361 26362 28
21090 26361 26363 28
21091 26361 26364 28
21092 26361 26365 28
21093 26366 26367 28
21094 26366 26368 28
21095 26366 26369 28
21096 26366 26370 28
21097 26371 26372 28
21098 26371 26373 28
21099 26371 26374 28
21100 26371 26375 28
21101 26376 26377 28
21102 26376 26378 28
21103 26376 26379 28
21104 26376 26380 28
21105 26381 26382 28
21106 26381 26383 28
21107 26381 26384 28
21108 26381 26385 28
21109 26386 26387 28
21110 26386 26388 28
21111 26386 26389 28
21112 26386 26390 28
21113 26391 26392 28
21114 26391 26393 28
21115 26391 26394 28
21116 26391 26395 28
21117 26396 26397 28
21118 26396 26398 28
21119 26396 26399 28
21120 26396 26400 28
21121 26401 26402 28
21122 26401 26403 28
21123 26401 26404 28
21124 26401 26405 28
21125 26406 26407 28
21126 26406 26408 28
21127 26406 26409 28
21128 26406 26410 28
21129 26411 26412 28
21130 26411 26413 28
21131 26411 26414 28
21132 26411 26415 28
21133 26416 26417 28
21134 26416 26418 28
21135 26416 26419 28
21136 26416 26420 28
21137 26421 26422 28
21138 26421 26423 28
21139 26421 26424 28
21140 26421 26425 28
21141 26426 26427 28
21142 26426 26428 28
21143 26426 26429 28
21144 26426 26430 28
21145 26431 26432 28
21146 26431 26433 28
21147 26431 26434 28
21148 26431 26435 28
21149 26436 26437 28
21150 26436 26438 28
21151 26436 26439 28
21152 26436 26440 28
21153 26441 26442 28
21154 26441 26443 28
21155 26441 26444 28
21156 26441 26445 28
21157 26446 26447 28
21158 26446 26448 28
21159 26446 26449 28
21160 26446 26450 28
21161 26451 26452 28
21162 26451 26453 28
21163 26451 26454 28
21164 26451 26455 28
21165 26456 26457 28
21166 26456 26458 28
21167 26456 26459 28
21168 26456 26460 28
21169 26461 26462 28
21170 26461 26463 28
21171 26461 26464 28
21172 26461 26465 28
21173 26466 26467 28
21174 26466 26468 28
21175 26466 26469 28
21176 26466 26470 28
21177 26471 26472 28
21178 26471 26473 28
21179 26471 26474 28
21180 26471 26475 28
21181 26476 26477 28
21182 26476 26478 28
21183 26476 26479 28
21184 26476 26480 28
21185 26481 26482 28
21186 26481 26483 28
21187 26481 26484 28
21188 26481 26485 28
21189 26486 26487 28
21190 26486 26488 28
21191 26486 26489 28
21192 26486 26490 28
21193 26491 26492 28
21194 26491 26493 28
21195 26491 26494 28
21196 26491 26495 28
21197 26496 26497 28
21198 26496 26498 28
21199 26496 26499 28
21200 26496 26500 28
21201 26501 26502 28
21202 26501 26503 28
21203 26501 26504 28
21204 26501 26505 28
21205 26506 26507 28
21206 26506 26508 28
21207 26506 26509 28
21208 26506 26510 28
21209 26511 26512 28
21210 26511 26513 28
21211 26511 26514 28
21212 26511 26515 28
21213 26516 26517 28
21214 26516 26518 28
21215 26516 26519 28
21216 26516 26520 28
21217 26521 26522 28
21218 26521 26523 28
21219 26521 26524 28
21220 26521 26525 28
21221 26526 26527 28
21222 26526 26528 28
21223 26526 26529 28
21224 26526 26530 28
21225 26531 26532 28
21226 26531 26533 28
21227 26531 26534 28
21228 26531 26535 28
21229 26536 26537 28
21230 26536 26538 28
21231 26536 26539 28
21232 26536 26540 28
21233 26541 26542 28
21234 26541 26543 28
21235 26541 26544 28
21236 26541 26545 28
21237 26546 26547 28
21238 26546 26548 28
21239 26546 26549 28
21240 26546 26550 28
21241 26551 26552 28
21242 26551 26553 28
21243 26551 26554 28
21244 26551 26555 28
21245 26556 26557 28
21246 26556 26558 28
21247 26556 26559 28
21248 26556 26560 28
21249 26561 26562 28
21250 26561 26563 28
21251 26561 26564 28
21252 26561 26565 28
21253 26566 26567 28
21254 26566 26568 28
21255 26566 26569 28
21256 26566 26570 28
21257 26571 26572 28
21258 26571 26573 28
21259 26571 26574 28
21260 26571 26575 28
21261 26576 26577 28
21262 26576 26578 28
21263 26576 26579 28
21264 26576 26580 28
21265 26581 26582 28
21266 26581 26583 28
21267 26581 26584 28
21268 26581 26585 28
21269 26586 26587 28
21270 26586 26588 28
21271 26586 26589 28
21272 26586 26590 28
21273 26591 26592 28
21274 26591 26593 28
21275 26591 26594 28
21276 26591 26595 28
21277 26596 26597 28
21278 26596 26598 28
21279 26596 26599 28
21280 26596 26600 28
21281 26601 26602 28
21282 26601 26603 28
21283 26601 26604 28
21284 26601 26605 28
21285 26606 26607 28
21286 26606 26608 28
21287 26606 26609 28
21288 26606 26610 28
21289 26611 26612 28
21290 26611 26613 28
21291 26611 26614 28
21292 26611 26615 28
21293 26616 26617 28
21294 26616 26618 28
21295 26616 26619 28
21296 26616 26620 28
21297 26621 26622 28
21298 26621 26623 28
21299 26621 26624 28
21300 26621 26625 28
21301 26626 26627 28
21302 26626 26628 28
21303 26626 26629 28
21304 26626 26630 28
21305 26631 26632 28
21306 26631 26633 28
21307 26631 26634 28
21308 26631 26635 28
21309 26636 26637 28
21310 26636 26638 28
21311 26636 26639 28
21312 26636 26640 28
21313 26641 26642 28
21314 26641 26643 28
21315 26641 26644 28
21316 26641 26645 28
21317 26646 26647 28
21318 26646 26648 28
21319 26646 26649 28
21320 26646 26650 28
21321 26651 26652 28
21322 26651 26653 28
21323 26651 26654 28
21324 26651 26655 28
21325 26656 26657 28
21326 26656 26658 28
21327 26656 26659 28
21328 26656 26660 28
21329 26661 26662 28
21330 26661 26663 28
21331 26661 26664 28
21332 26661 26665 28
21333 26666 26667 28
21334 26666 26668 28
21335 26666 26669 28
21336 26666 26670 28
21337 26671 26672 28
21338 26671 26673 28
21339 26671 26674 28
21340 26671 26675 28
21341 26676 26677 28
21342 26676 26678 28
21343 26676 26679 28
21344 26676 26680 28
21345 26681 26682 28
21346 26681 26683 28
21347 26681 26684 28
21348 26681 26685 28
21349 26686 26687 28
21350 26686 26688 28
21351 26686 26689 28
21352 26686 26690 28
21353 26691 26692 28
21354 26691 26693 28
21355 26691 26694 28
21356 26691 26695 28
21357 26696 26697 28
21358 26696 26698 28
21359 26696 26699 28
21360 26696 26700 28
21361 26701 26702 28
21362 26701 26703 28
21363 26701 26704 28
21364 26701 26705 28
21365 26706 26707 28
21366 26706 26708 28
21367 26706 26709 28
21368 26706 26710 28
21369 26711 26712 28
21370 26711 26713 28
21371 26711 26714 28
21372 26711 26715 28
21373 26716 26717 28
21374 26716 26718 28
21375 26716 26719 28
21376 26716 26720 28
21377 26721 26722 28
21378 26721 26723 28
21379 26721 26724 28
21380 26721 26725 28
21381 26726 26727 28
21382 26726 26728 28
21383 26726 26729 28
21384 26726 26730 28
21385 26731 26732 28
21386 26731 26733 28
21387 26731 26734 28
21388 26731 26735 28
21389 26736 26737 28
21390 26736 26738 28
21391 26736 26739 28
21392 26736 26740 28
21393 26741 26742 28
21394 26741 26743 28
21395 26741 26744 28
21396 26741 26745 28
21397 26746 26747 28
21398 26746 26748 28
21399 26746 26749 28
21400 26746 26750 28
21401 26751 26752 28
21402 26751 26753 28
21403 26751 26754 28
21404 26751 26755 28
21405 26756 26757 28
21406 26756 26758 28
21407 26756 26759 28
21408 26756 26760 28
21409 26761 26762 28
21410 26761 26763 28
21411 26761 26764 28
21412 26761 26765 28
21413 26766 26767 28
21414 26766 26768 28
21415 26766 26769 28
21416 26766 26770 28
21417 26771 26772 28
21418 26771 26773 28
21419 26771 26774 28
21420 26771 26775 28
21421 26776 26777 28
21422 26776 26778 28
21423 26776 26779 28
21424 26776 26780 28
21425 26781 26782 28
21426 26781 26783 28
21427 26781 26784 28
21428 26781 26785 28
21429 26786 26787 28
21430 26786 26788 28
21431 26786 26789 28
21432 26786 26790 28
21433 26791 26792 28
21434 26791 26793 28
21435 26791 26794 28
21436 26791 26795 28
21437 26796 26797 28
21438 26796 26798 28
21439 26796 26799 28
21440 26796 26800 28
21441 26801 26802 28
21442 26801 26803 28
21443 26801 26804 28
21444 26801 26805 28
21445 26806 26807 28
21446 26806 26808 28
21447 26806 26809 28
21448 26806 26810 28
21449 26811 26812 28
21450 26811 26813 28
21451 26811 26814 28
21452 26811 26815 28
21453 26816 26817 28
21454 26816 26818 28
21455 26816 26819 28
21456 26816 26820 28
21457 26821 26822 28
21458 26821 26823 28
21459 26821 26824 28
21460 26821 26825 28
21461 26826 26827 28
21462 26826 26828 28
21463 26826 26829 28
21464 26826 26830 28
21465 26831 26832 28
21466 26831 26833 28
21467 26831 26834 28
21468 26831 26835 28
21469 26836 26837 28
21470 26836 26838 28
21471 26836 26839 28
21472 26836 26840 28
21473 26841 26842 28
21474 26841 26843 28
21475 26841 26844 28
21476 26841 26845 28
21477 26846 26847 28
21478 26846 26848 28
21479 26846 26849 28
21480 26846 26850 28
21481 26851 26852 28
21482 26851 26853 28
21483 26851 26854 28
21484 26851 26855 28
21485 26856 26857 28
21486 26856 26858 28
21487 26856 26859 28
21488 26856 26860 28
21489 26861 26862 28
21490 26861 26863 28
21491 26861 26864 28
21492 26861 26865 28
21493 26866 26867 28
21494 26866 26868 28
21495 26866 26869 28
21496 26866 26870 28
21497 26871 26872 28
21498 26871 26873 28
21499 26871 26874 28
21500 26871 26875 28
21501 26876 26877 28
21502 26876 26878 28
21503 26876 26879 28
21504 26876 26880 28
21505 26881 26882 28
21506 26881 26883 28
21507 26881 26884 28
21508 26881 26885 28
21509 26886 26887 28
21510 26886 26888 28
21511 26886 26889 28
21512 26886 26890 28
21513 26891 26892 28
21514 26891 26893 28
21515 26891 26894 28
21516 26891 26895 28
21517 26896 26897 28
21518 26896 26898 28
21519 26896 26899 28
21520 26896 26900 28
21521 26901 26902 28
21522 26901 26903 28
21523 26901 26904 28
21524 26901 26905 28
21525 26906 26907 28
21526 26906 26908 28
21527 26906 26909 28
21528 26906 26910 28
21529 26911 26912 28
21530 26911 26913 28
21531 26911 26914 28
21532 26911 26915 28
21533 26916 26917 28
21534 26916 26918 28
21535 26916 26919 28
21536 26916 26920 28
21537 26921 26922 28
21538 26921 26923 28
21539 26921 26924 28
21540 26921 26925 28
21541 26926 26927 28
21542 26926 26928 28
21543 26926 26929 28
21544 26926 26930 28
21545 26931 26932 28
21546 26931 26933 28
21547 26931 26934 28
21548 26931 26935 28
21549 26936 26937 28
21550 26936 26938 28
21551 26936 26939 28
21552 26936 26940 28
21553 26941 26942 28
21554 26941 26943 28
21555 26941 26944 28
21556 26941 26945 28
21557 26946 26947 28
21558 26946 26948 28
21559 26946 26949 28
21560 26946 26950 28
21561 26951 26952 28
21562 26951 26953 28
21563 26951 26954 28
21564 26951 26955 28
21565 26956 26957 28
21566 26956 26958 28
21567 26956 26959 28
21568 26956 26960 28
21569 26961 26962 28
21570 26961 26963 28
21571 26961 26964 28
21572 26961 26965 28
21573 26966 26967 28
21574 26966 26968 28
21575 26966 26969 28
21576 26966 26970 28
21577 26971 26972 28
21578 26971 26973 28
21579 26971 26974 28
21580 26971 26975 28
21581 26976 26977 28
21582 26976 26978 28
21583 26976 26979 28
21584 26976 26980 28
21585 26981 26982 28
21586 26981 26983 28
21587 26981 26984 28
21588 26981 26985 28
21589 26986 26987 28
21590 26986 26988 28
21591 26986 26989 28
21592 26986 26990 28
21593 26991 26992 28
21594 26991 26993 28
21595 26991 26994 28
21596 26991 26995 28
21597 26996 26997 28
21598 26996 26998 28
21599 26996 26999 28
21600 26996 27000 28
21601 27001 27002 28
21602 27001 27003 28
21603 27001 27004 28
21604 27001 27005 28
21605 27006 27007 28
21606 27006 27008 28
21607 27006 27009 28
21608 27006 27010 28
21609 27011 27012 28
21610 27011 27013 28
21611 27011 27014 28
21612 27011 27015 28
21613 27016 27017 28
21614 27016 27018 28
21615 27016 27019 28
21616 27016 27020 28
21617 27021 27022 28
21618 27021 27023 28
21619 27021 27024 28
21620 27021 27025 28
21621 27026 27027 28
21622 27026 27028 28
21623 27026 27029 28
21624 27026 27030 28
21625 27031 27032 28
21626 27031 27033 28
21627 27031 27034 28
21628 27031 27035 28
21629 27036 27037 28
21630 27036 27038 28
21631 27036 27039 28
21632 27036 27040 28
21633 27041 27042 28
21634 27041 27043 28
21635 27041 27044 28
21636 27041 27045 28
21637 27046 27047 28
21638 27046 27048 28
21639 27046 27049 28
21640 27046 27050 28
21641 27051 27052 28
21642 27051 27053 28
21643 27051 27054 28
21644 27051 27055 28
21645 27056 27057 28
21646 27056 27058 28
21647 27056 27059 28
21648 27056 27060 28
21649 27061 27062 28
21650 27061 27063 28
21651 27061 27064 28
21652 27061 27065 28
21653 27066 27067 28
21654 27066 27068 28
21655 27066 27069 28
21656 27066 27070 28
21657 27071 27072 28
21658 27071 27073 28
21659 27071 27074 28
21660 27071 27075 28
21661 27076 27077 28
21662 27076 27078 28
21663 27076 27079 28
21664 27076 27080 28
21665 27081 27082 28
21666 27081 27083 28
21667 27081 27084 28
21668 27081 27085 28
21669 27086 27087 28
21670 27086 27088 28
21671 27086 27089 28
21672 27086 27090 28
21673 27091 27092 28
21674 27091 27093 28
21675 27091 27094 28
21676 27091 27095 28
21677 27096 27097 28
21678 27096 27098 28
21679 27096 27099 28
21680 27096 27100 28
21681 27101 27102 28
21682 27101 27103 28
21683 27101 27104 28
21684 27101 27105 28
21685 27106 27107 28
21686 27106 27108 28
21687 27106 27109 28
21688 27106 27110 28
21689 27111 27112 28
21690 27111 27113 28
21691 27111 27114 28
21692 27111 27115 28
21693 27116 27117 28
21694 27116 27118 28
21695 27116 27119 28
21696 27116 27120 28
21697 27121 27122 28
21698 27121 27123 28
21699 27121 27124 28
21700 27121 27125 28
21701 27126 27127 28
21702 27126 27128 28
21703 27126 27129 28
21704 27126 27130 28
21705 27131 27132 28
21706 27131 27133 28
21707 27131 27134 28
21708 27131 27135 28
21709 27136 27137 28
21710 27136 27138 28
21711 27136 27139 28
21712 27136 27140 28
21713 27141 27142 28
21714 27141 27143 28
21715 27141 27144 28
21716 27141 27145 28
21717 27146 27147 28
21718 27146 27148 28
21719 27146 27149 28
21720 27146 27150 28
21721 27151 27152 28
21722 27151 27153 28
21723 27151 27154 28
21724 27151 27155 28
21725 27156 27157 28
21726 27156 27158 28
21727 27156 27159 28
21728 27156 27160 28
21729 27161 27162 28
21730 27161 27163 28
21731 27161 27164 28
21732 27161 27165 28
21733 27166 27167 28
21734 27166 27168 28
21735 27166 27169 28
21736 27166 27170 28
21737 27171 27172 28
21738 27171 27173 28
21739 27171 27174 28
21740 27171 27175 28
21741 27176 27177 28
21742 27176 27178 28
21743 27176 27179 28
21744 27176 27180 28
21745 27181 27182 28
21746 27181 27183 28
21747 27181 27184 28
21748 27181 27185 28
21749 27186 27187 28
21750 27186 27188 28
21751 27186 27189 28
21752 27186 27190 28
21753 27191 27192 28
21754 27191 27193 28
21755 27191 27194 28
21756 27191 27195 28
21757 27196 27197 28
21758 27196 27198 28
21759 27196 27199 28
21760 27196 27200 28
21761 27201 27202 28
21762 27201 27203 28
21763 27201 27204 28
21764 27201 27205 28
21765 27206 27207 28
21766 27206 27208 28
21767 27206 27209 28
21768 27206 27210 28
21769 27211 27212 28
21770 27211 27213 28
21771 27211 27214 28
21772 27211 27215 28
21773 27216 27217 28
21774 27216 27218 28
21775 27216 27219 28
21776 27216 27220 28
21777 27221 27222 28
21778 27221 27223 28
21779 27221 27224 28
21780 27221 27225 28
21781 27226 27227 28
21782 27226 27228 28
21783 27226 27229 28
21784 27226 27230 28
21785 27231 27232 28
21786 27231 27233 28
21787 27231 27234 28
21788 27231 27235 28
21789 27236 27237 28
21790 27236 27238 28
21791 27236 27239 28
21792 27236 27240 28
21793 27241 27242 28
21794 27241 27243 28
21795 27241 27244 28
21796 27241 27245 28
21797 27246 27247 28
21798 27246 27248 28
21799 27246 27249 28
21800 27246 27250 28
21801 27251 27252 28
21802 27251 27253 28
21803 27251 27254 28
21804 27251 27255 28
21805 27256 27257 28
21806 27256 27258 28
21807 27256 27259 28
21808 27256 27260 28
21809 27261 27262 28
21810 27261 27263 28
21811 27261 27264 28
21812 27261 27265 28
21813 27266 27267 28
21814 27266 27268 28
21815 27266 27269 28
21816 27266 27270 28
21817 27271 27272 28
21818 27271 27273 28
21819 27271 27274 28
21820 27271 27275 28
21821 27276 27277 28
21822 27276 27278 28
21823 27276 27279 28
21824 27276 27280 28
21825 27281 27282 28
21826 27281 27283 28
21827 27281 27284 28
21828 27281 27285 28
21829 27286 27287 28
21830 27286 27288 28
21831 27286 27289 28
21832 27286 27290 28
21833 27291 27292 28
21834 27291 27293 28
21835 27291 27294 28
21836 27291 27295 28
21837 27296 27297 28
21838 27296 27298 28
21839 27296 27299 28
21840 27296 27300 28
21841 27301 27302 28
21842 27301 27303 28
21843 27301 27304 28
21844 27301 27305 28
21845 27306 27307 28
21846 27306 27308 28
21847 27306 27309 28
21848 27306 27310 28
21849 27311 27312 28
21850 27311 27313 28
21851 27311 27314 28
21852 27311 27315 28
21853 27316 27317 28
21854 27316 27318 28
21855 27316 27319 28
21856 27316 27320 28
21857 27321 27322 28
21858 27321 27323 28
21859 27321 27324 28
21860 27321 27325 28
21861 27326 27327 28
21862 27326 27328 28
21863 27326 27329 28
21864 27326 27330 28
21865 27331 27332 28
21866 27331 27333 28
21867 27331 27334 28
21868 27331 27335 28
21869 27336 27337 28
21870 27336 27338 28
21871 27336 27339 28
21872 27336 27340 28
21873 27341 27342 28
21874 27341 27343 28
21875 27341 27344 28
21876 27341 27345 28
21877 27346 27347 28
21878 27346 27348 28
21879 27346 27349 28
21880 27346 27350 28
21881 27351 27352 28
21882 27351 27353 28
21883 27351 27354 28
21884 27351 27355 28
21885 27356 27357 28
21886 27356 27358 28
21887 27356 27359 28
21888 27356 27360 28
21889 27361 27362 28
21890 27361 27363 28
21891 27361 27364 28
21892 27361 27365 28
21893 27366 27367 28
21894 27366 27368 28
21895 27366 27369 28
21896 27366 27370 28
21897 27371 27372 28
21898 27371 27373 28
21899 27371 27374 28
21900 27371 27375 28
21901 27376 27377 28
21902 27376 27378 28
21903 27376 27379 28
21904 27376 27380 28
21905 27381 27382 28
21906 27381 27383 28
21907 27381 27384 28
21908 27381 27385 28
21909 27386 27387 28
21910 27386 27388 28
21911 27386 27389 28
21912 27386 27390 28
21913 27391 27392 28
21914 27391 27393 28
21915 27391 27394 28
21916 27391 27395 28
21917 27396 27397 28
21918 27396 27398 28
21919 27396 27399 28
21920 27396 27400 28
21921 27401 27402 28
21922 27401 27403 28
21923 27401 27404 28
21924 27401 27405 28
21925 27406 27407 28
21926 27406 27408 28
21927 27406 27409 28
21928 27406 27410 28
21929 27411 27412 28
21930 27411 27413 28
21931 27411 27414 28
21932 27411 27415 28
21933 27416 27417 28
21934 27416 27418 28
21935 27416 27419 28
21936 27416 27420 28
21937 27421 27422 28
21938 27421 27423 28
21939 27421 27424 28
21940 27421 27425 28
21941 27426 27427 28
21942 27426 27428 28
21943 27426 27429 28
21944 27426 27430 28
21945 27431 27432 28
21946 27431 27433 28
21947 27431 27434 28
21948 27431 27435 28
21949 27436 27437 28
21950 27436 27438 28
21951 27436 27439 28
21952 27436 27440 28
21953 27441 27442 28
21954 27441 27443 28
21955 27441 27444 28
21956 27441 27445 28
21957 27446 27447 28
21958 27446 27448 28
21959 27446 27449 28
21960 27446 27450 28
21961 27451 27452 28
21962 27451 27453 28
21963 27451 27454 28
21964 27451 27455 28
21965 27456 27457 28
21966 27456 27458 28
21967 27456 27459 28
21968 27456 27460 28
21969 27461 27462 28
21970 27461 27463 28
21971 27461 27464 28
21972 27461 27465 28
21973 27466 27467 28
21974 27466 27468 28
21975 27466 27469 28
21976 27466 27470 28
21977 27471 27472 28
21978 27471 27473 28
21979 27471 27474 28
21980 27471 27475 28
21981 27476 27477 28
21982 27476 27478 28
21983 27476 27479 28
21984 27476 27480 28
21985 27481 27482 28
21986 27481 27483 28
21987 27481 27484 28
21988 27481 27485 28
21989 27486 27487 28
21990 27486 27488 28
21991 27486 27489 28
21992 27486 27490 28
21993 27491 27492 28
21994 27491 27493 28
21995 27491 27494 28
21996 27491 27495 28
21997 27496 27497 28
21998 27496 27498 28
21999 27496 27499 28
22000 27496 27500 28
22001 27501 27502 28
22002 27501 27503 28
22003 27501 27504 28
22004 27501 27505 28
22005 27506 27507 28
22006 27506 27508 28
22007 27506 27509 28
22008 27506 27510 28
22009 27511 27512 28
22010 27511 27513 28
22011 27511 27514 28
22012 27511 27515 28
22013 27516 27517 28
22014 27516 27518 28
22015 27516 27519 28
22016 27516 27520 28
22017 27521 27522 28
22018 27521 27523 28
22019 27521 27524 28
22020 27521 27525 28
22021 27526 27527 28
22022 27526 27528 28
22023 27526 27529 28
22024 27526 27530 28
22025 27531 27532 28
22026 27531 27533 28
22027 27531 27534 28
22028 27531 27535 28
22029 27536 27537 28
22030 27536 27538 28
22031 27536 27539 28
22032 27536 27540 28
22033 27541 27542 28
22034 27541 27543 28
22035 27541 27544 28
22036 27541 27545 28
22037 27546 27547 28
22038 27546 27548 28
22039 27546 27549 28
22040 27546 27550 28
22041 27551 27552 28
22042 27551 27553 28
22043 27551 27554 28
22044 27551 27555 28
22045 27556 27557 28
22046 27556 27558 28
22047 27556 27559 28
22048 27556 27560 28
22049 27561 27562 28
22050 27561 27563 28
22051 27561 27564 28
22052 27561 27565 28
22053 27566 27567 28
22054 27566 27568 28
22055 27566 27569 28
22056 27566 27570 28
22057 27571 27572 28
22058 27571 27573 28
22059 27571 27574 28
22060 27571 27575 28
22061 27576 27577 28
22062 27576 27578 28
22063 27576 27579 28
22064 27576 27580 28
22065 27581 27582 28
22066 27581 27583 28
22067 27581 27584 28
22068 27581 27585 28
22069 27586 27587 28
22070 27586 27588 28
22071 27586 27589 28
22072 27586 27590 28
22073 27591 27592 28
22074 27591 27593 28
22075 27591 27594 28
22076 27591 27595 28
22077 27596 27597 28
22078 27596 27598 28
22079 27596 27599 28
22080 27596 27600 28
22081 27601 27602 28
22082 27601 27603 28
22083 27601 27604 28
22084 27601 27605 28
22085 27606 27607 28
22086 27606 27608 28
22087 27606 27609 28
22088 27606 27610 28
22089 27611 27612 28
22090 27611 27613 28
22091 27611 27614 28
22092 27611 27615 28
22093 27616 27617 28
22094 27616 27618 28
22095 27616 27619 28
22096 27616 27620 28
22097 27621 27622 28
22098 27621 27623 28
22099 27621 27624 28
22100 27621 27625 28
22101 27626 27627 28
22102 27626 27628 28
22103 27626 27629 28
22104 27626 27630 28
22105 27631 27632 28
22106 27631 27633 28
22107 27631 27634 28
22108 27631 27635 28
22109 27636 27637 28
22110 27636 27638 28
22111 27636 27639 28
22112 27636 27640 28
22113 27641 27642 28
22114 27641 27643 28
22115 27641 27644 28
22116 27641 27645 28
22117 27646 27647 28
22118 27646 27648 28
22119 27646 27649 28
22120 27646 27650 28
22121 27651 27652 28
22122 27651 27653 28
22123 27651 27654 28
22124 27651 27655 28
22125 27656 27657 28
22126 27656 27658 28
22127 27656 27659 28
22128 27656 27660 28
22129 27661 27662 28
22130 27661 27663 28
22131 27661 27664 28
22132 27661 27665 28
22133 27666 27667 28
22134 27666 27668 28
22135 27666 27669 28
22136 27666 27670 28
22137 27671 27672 28
22138 27671 27673 28
22139 27671 27674 28
22140 27671 27675 28
22141 27676 27677 28
22142 27676 27678 28
22143 27676 27679 28
22144 27676 27680 28
22145 27681 27682 28
22146 27681 27683 28
22147 27681 27684 28
22148 27681 27685 28
22149 27686 27687 28
22150 27686 27688 28
22151 27686 27689 28
22152 27686 27690 28
22153 27691 27692 28
22154 27691 27693 28
22155 27691 27694 28
22156 27691 27695 28
22157 27696 27697 28
22158 27696 27698 28
22159 27696 27699 28
22160 27696 27700 28
22161 27701 27702 28
22162 27701 27703 28
22163 27701 27704 28
22164 27701 27705 28
22165 27706 27707 28
22166 27706 27708 28
22167 27706 27709 28
22168 27706 27710 28
22169 27711 27712 28
22170 27711 27713 28
22171 27711 27714 28
22172 27711 27715 28
22173 27716 27717 28
22174 27716 27718 28
22175 27716 27719 28
22176 27716 27720 28
22177 27721 27722 28
22178 27721 27723 28
22179 27721 27724 28
22180 27721 27725 28
22181 27726 27727 28
22182 27726 27728 28
22183 27726 27729 28
22184 27726 27730 28
22185 27731 27732 28
22186 27731 27733 28
22187 27731 27734 28
22188 27731 27735 28
22189 27736 27737 28
22190 27736 27738 28
22191 27736 27739 28
22192 27736 27740 28
22193 27741 27742 28
22194 27741 27743 28
22195 27741 27744 28
22196 27741 27745 28
22197 27746 27747 28
22198 27746 27748 28
22199 27746 27749 28
22200 27746 27750 28
22201 27751 27752 28
22202 27751 27753 28
22203 27751 27754 28
22204 27751 27755 28
22205 27756 27757 28
22206 27756 27758 28
22207 27756 27759 28
22208 27756 27760 28
22209 27761 27762 28
22210 27761 27763 28
22211 27761 27764 28
22212 27761 27765 28
22213 27766 27767 28
22214 27766 27768 28
22215 27766 27769 28
22216 27766 27770 28
22217 27771 27772 28
22218 27771 27773 28
22219 27771 27774 28
22220 27771 27775 28
22221 27776 27777 28
22222 27776 27778 28
22223 27776 27779 28
22224 27776 27780 28
22225 27781 27782 28
22226 27781 27783 28
22227 27781 27784 28
22228 27781 27785 28
22229 27786 27787 28
22230 27786 27788 28
22231 27786 27789 28
22232 27786 27790 28
22233 27791 27792 28
22234 27791 27793 28
22235 27791 27794 28
22236 27791 27795 28
22237 27796 27797 28
22238 27796 27798 28
22239 27796 27799 28
22240 27796 27800 28
22241 27801 27802 28
22242 27801 27803 28
22243 27801 27804 28
22244 27801 27805 28
22245 27806 27807 28
22246 27806 27808 28
22247 27806 27809 28
22248 27806 27810 28
22249 27811 27812 28
22250 27811 27813 28
22251 27811 27814 28
22252 27811 27815 28
22253 27816 27817 28
22254 27816 27818 28
22255 27816 27819 28
22256 27816 27820 28
22257 27821 27822 28
22258 27821 27823 28
22259 27821 27824 28
22260 27821 27825 28
22261 27826 27827 28
22262 27826 27828 28
22263 27826 27829 28
22264 27826 27830 28
22265 27831 27832 28
22266 27831 27833 28
22267 27831 27834 28
22268 27831 27835 28
22269 27836 27837 28
22270 27836 27838 28
22271 27836 27839 28
22272 27836 27840 28
22273 27841 27842 28
22274 27841 27843 28
22275 27841 27844 28
22276 27841 27845 28
22277 27846 27847 28
22278 27846 27848 28
22279 27846 27849 28
22280 27846 27850 28
22281 27851 27852 28
22282 27851 27853 28
22283 27851 27854 28
22284 27851 27855 28
22285 27856 27857 28
22286 27856 27858 28
22287 27856 27859 28
22288 27856 27860 28
22289 27861 27862 28
22290 27861 27863 28
22291 27861 27864 28
22292 27861 27865 28
22293 27866 27867 28
22294 27866 27868 28
22295 27866 27869 28
22296 27866 27870 28
22297 27871 27872 28
22298 27871 27873 28
22299 27871 27874 28
22300 27871 27875 28
22301 27876 27877 28
22302 27876 27878 28
22303 27876 27879 28
22304 27876 27880 28
22305 27881 27882 28
22306 27881 27883 28
22307 27881 27884 28
22308 27881 27885 28
22309 27886 27887 28
22310 27886 27888 28
22311 27886 27889 28
22312 27886 27890 28
22313 27891 27892 28
22314 27891 27893 28
22315 27891 27894 28
22316 27891 27895 28
22317 27896 27897 28
22318 27896 27898 28
22319 27896 27899 28
22320 27896 27900 28
22321 27901 27902 28
22322 27901 27903 28
22323 27901 27904 28
22324 27901 27905 28
22325 27906 27907 28
22326 27906 27908 28
22327 27906 27909 28
22328 27906 27910 28
22329 27911 27912 28
22330 27911 27913 28
22331 27911 27914 28
22332 27911 27915 28
22333 27916 27917 28
22334 27916 27918 28
22335 27916 27919 28
22336 27916 27920 28
22337 27921 27922 28
22338 27921 27923 28
22339 27921 27924 28
22340 27921 27925 28
22341 27926 27927 28
22342 27926 27928 28
22343 27926 27929 28
22344 27926 27930 28
22345 27931 27932 28
22346 27931 27933 28
22347 27931 27934 28
22348 27931 27935 28
22349 27936 27937 28
22350 27936 27938 28
22351 27936 27939 28
22352 27936 27940 28
22353 27941 27942 28
22354 27941 27943 28
22355 27941 27944 28
22356 27941 27945 28
22357 27946 27947 28
22358 27946 27948 28
22359 27946 27949 28
22360 27946 27950 28
22361 27951 27952 28
22362 27951 27953 28
22363 27951 27954 28
22364 27951 27955 28
22365 27956 27957 28
22366 27956 27958 28
22367 27956 27959 28
22368 27956 27960 28
22369 27961 27962 28
22370 27961 27963 28
22371 27961 27964 28
22372 27961 27965 28
22373 27966 27967 28
22374 27966 27968 28
22375 27966 27969 28
22376 27966 27970 28
22377 27971 27972 28
22378 27971 27973 28
22379 27971 27974 28
22380 27971 27975 28
22381 27976 27977 28
22382 27976 27978 28
22383 27976 27979 28
22384 27976 27980 28
22385 27981 27982 28
22386 27981 27983 28
22387 27981 27984 28
22388 27981 27985 28
22389 27986 27987 28
22390 27986 27988 28
22391 27986 27989 28
22392 27986 27990 28
22393 27991 27992 28
22394 27991 27993 28
22395 27991 27994 28
22396 27991 27995 28
22397 27996 27997 28
22398 27996 27998 28
22399 27996 27999 28
22400 27996 28000 28
22401 28001 28002 28
22402 28001 28003 28
22403 28001 28004 28
22404 28001 28005 28
22405 28006 28007 28
22406 28006 28008 28
22407 28006 28009 28
22408 28006 28010 28
22409 28011 28012 28
22410 28011 28013 28
22411 28011 28014 28
22412 28011 28015 28
22413 28016 28017 28
22414 28016 28018 28
22415 28016 28019 28
22416 28016 28020 28
22417 28021 28022 28
22418 28021 28023 28
22419 28021 28024 28
22420 28021 28025 28
22421 28026 28027 28
22422 28026 28028 28
22423 28026 28029 28
22424 28026 28030 28
22425 28031 28032 28
22426 28031 28033 28
22427 28031 28034 28
22428 28031 28035 28
22429 28036 28037 28
22430 28036 28038 28
22431 28036 28039 28
22432 28036 28040 28
22433 28041 28042 28
22434 28041 28043 28
22435 28041 28044 28
22436 28041 28045 28
22437 28046 28047 28
22438 28046 28048 28
22439 28046 28049 28
22440 28046 28050 28
22441 28051 28052 28
22442 28051 28053 28
22443 28051 28054 28
22444 28051 28055 28
22445 28056 28057 28
22446 28056 28058 28
22447 28056 28059 28
22448 28056 28060 28
22449 28061 28062 28
22450 28061 28063 28
22451 28061 28064 28
22452 28061 28065 28
22453 28066 28067 28
22454 28066 28068 28
22455 28066 28069 28
22456 28066 28070 28
22457 28071 28072 28
22458 28071 28073 28
22459 28071 28074 28
22460 28071 28075 28
22461 28076 28077 28
22462 28076 28078 28
22463 28076 28079 28
22464 28076 28080 28
22465 28081 28082 28
22466 28081 28083 28
22467 28081 28084 28
22468 28081 28085 28
22469 28086 28087 28
22470 28086 28088 28
22471 28086 28089 28
22472 28086 28090 28
22473 28091 28092 28
22474 28091 28093 28
22475 28091 28094 28
22476 28091 28095 28
22477 28096 28097 28
22478 28096 28098 28
22479 28096 28099 28
22480 28096 28100 28
22481 28101 28102 28
22482 28101 28103 28
22483 28101 28104 28
22484 28101 28105 28
22485 28106 28107 28
22486 28106 28108 28
22487 28106 28109 28
22488 28106 28110 28
22489 28111 28112 28
22490 28111 28113 28
22491 28111 28114 28
22492 28111 28115 28
22493 28116 28117 28
22494 28116 28118 28
22495 28116 28119 28
22496 28116 28120 28
22497 28121 28122 28
22498 28121 28123 28
22499 28121 28124 28
22500 28121 28125 28
22501 28126 28127 28
22502 28126 28128 28
22503 28126 28129 28
22504 28126 28130 28
22505 28131 28132 28
22506 28131 28133 28
22507 28131 28134 28
22508 28131 28135 28
22509 28136 28137 28
22510 28136 28138 28
22511 28136 28139 28
22512 28136 28140 28
22513 28141 28142 28
22514 28141 28143 28
22515 28141 28144 28
22516 28141 28145 28
22517 28146 28147 28
22518 28146 28148 28
22519 28146 28149 28
22520 28146 28150 28
22521 28151 28152 28
22522 28151 28153 28
22523 28151 28154 28
22524 28151 28155 28
22525 28156 28157 28
22526 28156 28158 28
22527 28156 28159 28
22528 28156 28160 28
22529 28161 28162 28
22530 28161 28163 28
22531 28161 28164 28
22532 28161 28165 28
22533 28166 28167 28
22534 28166 28168 28
22535 28166 28169 28
22536 28166 28170 28
22537 28171 28172 28
22538 28171 28173 28
22539 28171 28174 28
22540 28171 28175 28
22541 28176 28177 28
22542 28176 28178 28
22543 28176 28179 28
22544 28176 28180 28
22545 28181 28182 28
22546 28181 28183 28
22547 28181 28184 28
22548 28181 28185 28
22549 28186 28187 28
22550 28186 28188 28
22551 28186 28189 28
22552 28186 28190 28
22553 28191 28192 28
22554 28191 28193 28
22555 28191 28194 28
22556 28191 28195 28
22557 28196 28197 28
22558 28196 28198 28
22559 28196 28199 28
22560 28196 28200 28
22561 28201 28202 28
22562 28201 28203 28
22563 28201 28204 28
22564 28201 28205 28
22565 28206 28207 28
22566 28206 28208 28
22567 28206 28209 28
22568 28206 28210 28
22569 28211 28212 28
22570 28211 28213 28
22571 28211 28214 28
22572 28211 28215 28
22573 28216 28217 28
22574 28216 28218 28
22575 28216 28219 28
22576 28216 28220 28
22577 28221 28222 28
22578 28221 28223 28
22579 28221 28224 28
22580 28221 28225 28
22581 28226 28227 28
22582 28226 28228 28
22583 28226 28229 28
22584 28226 28230 28
22585 28231 28232 28
22586 28231 28233 28
22587 28231 28234 28
22588 28231 28235 28
22589 28236 28237 28
22590 28236 28238 28
22591 28236 28239 28
22592 28236 28240 28
22593 28241 28242 28
22594 28241 28243 28
22595 28241 28244 28
22596 28241 28245 28
22597 28246 28247 28
22598 28246 28248 28
22599 28246 28249 28
22600 28246 28250 28
22601 28251 28252 28
22602 28251 28253 28
22603 28251 28254 28
22604 28251 28255 28
22605 28256 28257 28
22606 28256 28258 28
22607 28256 28259 28
22608 28256 28260 28
22609 28261 28262 28
22610 28261 28263 28
22611 28261 28264 28
22612 28261 28265 28
22613 28266 28267 28
22614 28266 28268 28
22615 28266 28269 28
22616 28266 28270 28
22617 28271 28272 28
22618 28271 28273 28
22619 28271 28274 28
22620 28271 28275 28
22621 28276 28277 28
22622 28276 28278 28
22623 28276 28279 28
22624 28276 28280 28
22625 28281 28282 28
22626 28281 28283 28
22627 28281 28284 28
22628 28281 28285 28
22629 28286 28287 28
22630 28286 28288 28
22631 28286 28289 28
22632 28286 28290 28
22633 28291 28292 28
22634 28291 28293 28
22635 28291 28294 28
22636 28291 28295 28
22637 28296 28297 28
22638 28296 28298 28
22639 28296 28299 28
22640 28296 28300 28
22641 28301 28302 28
22642 28301 28303 28
22643 28301 28304 28
22644 28301 28305 28
22645 28306 28307 28
22646 28306 28308 28
22647 28306 28309 28
22648 28306 28310 28
22649 28311 28312 28
22650 28311 28313 28
22651 28311 28314 28
22652 28311 28315 28
22653 28316 28317 28
22654 28316 28318 28
22655 28316 28319 28
22656 28316 28320 28
22657 28321 28322 28
22658 28321 28323 28
22659 28321 28324 28
22660 28321 28325 28
22661 28326 28327 28
22662 28326 28328 28
22663 28326 28329 28
22664 28326 28330 28
22665 28331 28332 28
22666 28331 28333 28
22667 28331 28334 28
22668 28331 28335 28
22669 28336 28337 28
22670 28336 28338 28
22671 28336 28339 28
22672 28336 28340 28
22673 28341 28342 28
22674 28341 28343 28
22675 28341 28344 28
22676 28341 28345 28
22677 28346 28347 28
22678 28346 28348 28
22679 28346 28349 28
22680 28346 28350 28
22681 28351 28352 28
22682 28351 28353 28
22683 28351 28354 28
22684 28351 28355 28
22685 28356 28357 28
22686 28356 28358 28
22687 28356 28359 28
22688 28356 28360 28
22689 28361 28362 28
22690 28361 28363 28
22691 28361 28364 28
22692 28361 28365 28
22693 28366 28367 28
22694 28366 28368 28
22695 28366 28369 28
22696 28366 28370 28
22697 28371 28372 28
22698 28371 28373 28
22699 28371 28374 28
22700 28371 28375 28
22701 28376 28377 28
22702 28376 28378 28
22703 28376 28379 28
22704 28376 28380 28
22705 28381 28382 28
22706 28381 28383 28
22707 28381 28384 28
22708 28381 28385 28
22709 28386 28387 28
22710 28386 28388 28
22711 28386 28389 28
22712 28386 28390 28
22713 28391 28392 28
22714 28391 28393 28
22715 28391 28394 28
22716 28391 28395 28
22717 28396 28397 28
22718 28396 28398 28
22719 28396 28399 28
22720 28396 28400 28
22721 28401 28402 28
22722 28401 28403 28
22723 28401 28404 28
22724 28401 28405 28
22725 28406 28407 28
22726 28406 28408 28
22727 28406 28409 28
22728 28406 28410 28
22729 28411 28412 28
22730 28411 28413 28
22731 28411 28414 28
22732 28411 28415 28
22733 28416 28417 28
22734 28416 28418 28
22735 28416 28419 28
22736 28416 28420 28
22737 28421 28422 28
22738 28421 28423 28
22739 28421 28424 28
22740 28421 28425 28
22741 28426 28427 28
22742 28426 28428 28
22743 28426 28429 28
22744 28426 28430 28
22745 28431 28432 28
22746 28431 28433 28
22747 28431 28434 28
22748 28431 28435 28
22749 28436 28437 28
22750 28436 28438 28
22751 28436 28439 28
22752 28436 28440 28
22753 28441 28442 28
22754 28441 28443 28
22755 28441 28444 28
22756 28441 28445 28
22757 28446 28447 28
22758 28446 28448 28
22759 28446 28449 28
22760 28446 28450 28
22761 28451 28452 28
22762 28451 28453 28
22763 28451 28454 28
22764 28451 28455 28
22765 28456 28457 28
22766 28456 28458 28
22767 28456 28459 28
22768 28456 28460 28
22769 28461 28462 28
22770 28461 28463 28
22771 28461 28464 28
22772 28461 28465 28
22773 28466 28467 28
22774 28466 28468 28
22775 28466 28469 28
22776 28466 28470 28
22777 28471 28472 28
22778 28471 28473 28
22779 28471 28474 28
22780 28471 28475 28
22781 28476 28477 28
22782 28476 28478 28
22783 28476 28479 28
22784 28476 28480 28
22785 28481 28482 28
22786 28481 28483 28
22787 28481 28484 28
22788 28481 28485 28
22789 28486 28487 28
22790 28486 28488 28
22791 28486 28489 28
22792 28486 28490 28
22793 28491 28492 28
22794 28491 28493 28
22795 28491 28494 28
22796 28491 28495 28
22797 28496 28497 28
22798 28496 28498 28
22799 28496 28499 28
22800 28496 28500 28
22801 28501 28502 28
22802 28501 28503 28
22803 28501 28504 28
22804 28501 28505 28
22805 28506 28507 28
22806 28506 28508 28
22807 28506 28509 28
22808 28506 28510 28
22809 28511 28512 28
22810 28511 28513 28
22811 28511 28514 28
22812 28511 28515 28
22813 28516 28517 28
22814 28516 28518 28
22815 28516 28519 28
22816 28516 28520 28
22817 28521 28522 28
22818 28521 28523 28
22819 28521 28524 28
22820 28521 28525 28
22821 28526 28527 28
22822 28526 28528 28
22823 28526 28529 28
22824 28526 28530 28
22825 28531 28532 28
22826 28531 28533 28
22827 28531 28534 28
22828 28531 28535 28
22829 28536 28537 28
22830 28536 28538 28
22831 28536 28539 28
22832 28536 28540 28
22833 28541 28542 28
22834 28541 28543 28
22835 28541 28544 28
22836 28541 28545 28
22837 28546 28547 28
22838 28546 28548 28
22839 28546 28549 28
22840 28546 28550 28
22841 28551 28552 28
22842 28551 28553 28
22843 28551 28554 28
22844 28551 28555 28
22845 28556 28557 28
22846 28556 28558 28
22847 28556 28559 28
22848 28556 28560 28
22849 28561 28562 28
22850 28561 28563 28
22851 28561 28564 28
22852 28561 28565 28
22853 28566 28567 28
22854 28566 28568 28
22855 28566 28569 28
22856 28566 28570 28
22857 28571 28572 28
22858 28571 28573 28
22859 28571 28574 28
22860 28571 28575 28
22861 28576 28577 28
22862 28576 28578 28
22863 28576 28579 28
22864 28576 28580 28
22865 28581 28582 28
22866 28581 28583 28
22867 28581 28584 28
22868 28581 28585 28
22869 28586 28587 28
22870 28586 28588 28
22871 28586 28589 28
22872 28586 28590 28
22873 28591 28592 28
22874 28591 28593 28
22875 28591 28594 28
22876 28591 28595 28
22877 28596 28597 28
22878 28596 28598 28
22879 28596 28599 28
22880 28596 28600 28
22881 28601 28602 28
22882 28601 28603 28
22883 28601 28604 28
22884 28601 28605 28
22885 28606 28607 28
22886 28606 28608 28
22887 28606 28609 28
22888 28606 28610 28
22889 28611 28612 28
22890 28611 28613 28
22891 28611 28614 28
22892 28611 28615 28
22893 28616 28617 28
22894 28616 28618 28
22895 28616 28619 28
22896 28616 28620 28
22897 28621 28622 28
22898 28621 28623 28
22899 28621 28624 28
22900 28621 28625 28
22901 28626 28627 28
22902 28626 28628 28
22903 28626 28629 28
22904 28626 28630 28
22905 28631 28632 28
22906 28631 28633 28
22907 28631 28634 28
22908 28631 28635 28
22909 28636 28637 28
22910 28636 28638 28
22911 28636 28639 28
22912 28636 28640 28
22913 28641 28642 28
22914 28641 28643 28
22915 28641 28644 28
22916 28641 28645 28
22917 28646 28647 28
22918 28646 28648 28
22919 28646 28649 28
22920 28646 28650 28
22921 28651 28652 28
22922 28651 28653 28
22923 28651 28654 28
22924 28651 28655 28
22925 28656 28657 28
22926 28656 28658 28
22927 28656 28659 28
22928 28656 28660 28
22929 28661 28662 28
22930 28661 28663 28
22931 28661 28664 28
22932 28661 28665 28
22933 28666 28667 28
22934 28666 28668 28
22935 28666 28669 28
22936 28666 28670 28
22937 28671 28672 28
22938 28671 28673 28
22939 28671 28674 28
22940 28671 28675 28
22941 28676 28677 28
22942 28676 28678 28
22943 28676 28679 28
22944 28676 28680 28
22945 28681 28682 28
22946 28681 28683 28
22947 28681 28684 28
22948 28681 28685 28
22949 28686 28687 28
22950 28686 28688 28
22951 28686 28689 28
22952 28686 28690 28
22953 28691 28692 28
22954 28691 28693 28
22955 28691 28694 28
22956 28691 28695 28
22957 28696 28697 28
22958 28696 28698 28
22959 28696 28699 28
22960 28696 28700 28
22961 28701 28702 28
22962 28701 28703 28
22963 28701 28704 28
22964 28701 28705 28
22965 28706 28707 28
22966 28706 28708 28
22967 28706 28709 28
22968 28706 28710 28
22969 28711 28712 28
22970 28711 28713 28
22971 28711 28714 28
22972 28711 28715 28
22973 28716 28717 28
22974 28716 28718 28
22975 28716 28719 28
22976 28716 28720 28
22977 28721 28722 28
22978 28721 28723 28
22979 28721 28724 28
22980 28721 28725 28
22981 28726 28727 28
22982 28726 28728 28
22983 28726 28729 28
22984 28726 28730 28
22985 28731 28732 28
22986 28731 28733 28
22987 28731 28734 28
22988 28731 28735 28
22989 28736 28737 28
22990 28736 28738 28
22991 28736 28739 28
22992 28736 28740 28
22993 28741 28742 28
22994 28741 28743 28
22995 28741 28744 28
22996 28741 28745 28
22997 28746 28747 28
22998 28746 28748 28
22999 28746 28749 28
23000 28746 28750 28
23001 28751 28752 28
23002 28751 28753 28
23003 28751 28754 28
23004 28751 28755 28
23005 28756 28757 28
23006 28756 28758 28
23007 28756 28759 28
23008 28756 28760 28
23009 28761 28762 28
23010 28761 28763 28
23011 28761 28764 28
23012 28761 28765 28
23013 28766 28767 28
23014 28766 28768 28
23015 28766 28769 28
23016 28766 28770 28
23017 28771 28772 28
23018 28771 28773 28
23019 28771 28774 28
23020 28771 28775 28
23021 28776 28777 28
23022 28776 28778 28
23023 28776 28779 28
23024 28776 28780 28
23025 28781 28782 28
23026 28781 28783 28
23027 28781 28784 28
23028 28781 28785 28
23029 28786 28787 28
23030 28786 28788 28
23031 28786 28789 28
23032 28786 28790 28
23033 28791 28792 28
23034 28791 28793 28
23035 28791 28794 28
23036 28791 28795 28
23037 28796 28797 28
23038 28796 28798 28
23039 28796 28799 28
23040 28796 28800 28
23041 28801 28802 28
23042 28801 28803 28
23043 28801 28804 28
23044 28801 28805 28
23045 28806 28807 28
23046 28806 28808 28
23047 28806 28809 28
23048 28806 28810 28
23049 28811 28812 28
23050 28811 28813 28
23051 28811 28814 28
23052 28811 28815 28
23053 28816 28817 28
23054 28816 28818 28
23055 28816 28819 28
23056 28816 28820 28
23057 28821 28822 28
23058 28821 28823 28
23059 28821 28824 28
23060 28821 28825 28
23061 28826 28827 28
23062 28826 28828 28
23063 28826 28829 28
23064 28826 28830 28
23065 28831 28832 28
23066 28831 28833 28
23067 28831 28834 28
23068 28831 28835 28
23069 28836 28837 28
23070 28836 28838 28
23071 28836 28839 28
23072 28836 28840 28
23073 28841 28842 28
23074 28841 28843 28
23075 28841 28844 28
23076 28841 28845 28
23077 28846 28847 28
23078 28846 28848 28
23079 28846 28849 28
23080 28846 28850 28
23081 28851 28852 28
23082 28851 28853 28
23083 28851 28854 28
23084 28851 28855 28
23085 28856 28857 28
23086 28856 28858 28
23087 28856 28859 28
23088 28856 28860 28
23089 28861 28862 28
23090 28861 28863 28
23091 28861 28864 28
23092 28861 28865 28
23093 28866 28867 28
23094 28866 28868 28
23095 28866 28869 28
23096 28866 28870 28
23097 28871 28872 28
23098 28871 28873 28
23099 28871 28874 28
23100 28871 28875 28
23101 28876 28877 28
23102 28876 28878 28
23103 28876 28879 28
23104 28876 28880 28
23105 28881 28882 28
23106 28881 28883 28
23107 28881 28884 28
23108 28881 28885 28
23109 28886 28887 28
23110 28886 28888 28
23111 28886 28889 28
23112 28886 28890 28
23113 28891 28892 28
23114 28891 28893 28
23115 28891 28894 28
23116 28891 28895 28
23117 28896 28897 28
23118 28896 28898 28
23119 28896 28899 28
23120 28896 28900 28
23121 28901 28902 28
23122 28901 28903 28
23123 28901 28904 28
23124 28901 28905 28
23125 28906 28907 28
23126 28906 28908 28
23127 28906 28909 28
23128 28906 28910 28
23129 28911 28912 28
23130 28911 28913 28
23131 28911 28914 28
23132 28911 28915 28
23133 28916 28917 28
23134 28916 28918 28
23135 28916 28919 28
23136 28916 28920 28
23137 28921 28922 28
23138 28921 28923 28
23139 28921 28924 28
23140 28921 28925 28
23141 28926 28927 28
23142 28926 28928 28
23143 28926 28929 28
23144 28926 28930 28
23145 28931 28932 28
23146 28931 28933 28
23147 28931 28934 28
23148 28931 28935 28
23149 28936 28937 28
23150 28936 28938 28
23151 28936 28939 28
23152 28936 28940 28
23153 28941 28942 28
23154 28941 28943 28
23155 28941 28944 28
23156 28941 28945 28
23157 28946 28947 28
23158 28946 28948 28
23159 28946 28949 28
23160 28946 28950 28
23161 28951 28952 28
23162 28951 28953 28
23163 28951 28954 28
23164 28951 28955 28
23165 28956 28957 28
23166 28956 28958 28
23167 28956 28959 28
23168 28956 28960 28
23169 28961 28962 28
23170 28961 28963 28
23171 28961 28964 28
23172 28961 28965 28
23173 28966 28967 28
23174 28966 28968 28
23175 28966 28969 28
23176 28966 28970 28
23177 28971 28972 28
23178 28971 28973 28
23179 28971 28974 28
23180 28971 28975 28
23181 28976 28977 28
23182 28976 28978 28
23183 28976 28979 28
23184 28976 28980 28
23185 28981 28982 28
23186 28981 28983 28
23187 28981 28984 28
23188 28981 28985 28
23189 28986 28987 28
23190 28986 28988 28
23191 28986 28989 28
23192 28986 28990 28
23193 28991 28992 28
23194 28991 28993 28
23195 28991 28994 28
23196 28991 28995 28
23197 28996 28997 28
23198 28996 28998 28
23199 28996 28999 28
23200 28996 29000 28
23201 29001 29002 28
23202 29001 29003 28
23203 29001 29004 28
23204 29001 29005 28
23205 29006 29007 28
23206 29006 29008 28
23207 29006 29009 28
23208 29006 29010 28
23209 29011 29012 28
23210 29011 29013 28
23211 29011 29014 28
23212 29011 29015 28
23213 29016 29017 28
23214 29016 29018 28
23215 29016 29019 28
23216 29016 29020 28
23217 29021 29022 28
23218 29021 29023 28
23219 29021 29024 28
23220 29021 29025 28
23221 29026 29027 28
23222 29026 29028 28
23223 29026 29029 28
23224 29026 29030 28
23225 29031 29032 28
23226 29031 29033 28
23227 29031 29034 28
23228 29031 29035 28
23229 29036 29037 28
23230 29036 29038 28
23231 29036 29039 28
23232 29036 29040 28
23233 29041 29042 28
23234 29041 29043 28
23235 29041 29044 28
23236 29041 29045 28
23237 29046 29047 28
23238 29046 29048 28
23239 29046 29049 28
23240 29046 29050 28
23241 29051 29052 28
23242 29051 29053 28
23243 29051 29054 28
23244 29051 29055 28
23245 29056 29057 28
23246 29056 29058 28
23247 29056 29059 28
23248 29056 29060 28
23249 29061 29062 28
23250 29061 29063 28
23251 29061 29064 28
23252 29061 29065 28
23253 29066 29067 28
23254 29066 29068 28
23255 29066 29069 28
23256 29066 29070 28
23257 29071 29072 28
23258 29071 29073 28
23259 29071 29074 28
23260 29071 29075 28
23261 29076 29077 28
23262 29076 29078 28
23263 29076 29079 28
23264 29076 29080 28
23265 29081 29082 28
23266 29081 29083 28
23267 29081 29084 28
23268 29081 29085 28
23269 29086 29087 28
23270 29086 29088 28
23271 29086 29089 28
23272 29086 29090 28
23273 29091 29092 28
23274 29091 29093 28
23275 29091 29094 28
23276 29091 29095 28
23277 29096 29097 28
23278 29096 29098 28
23279 29096 29099 28
23280 29096 29100 28
23281 29101 29102 28
23282 29101 29103 28
23283 29101 29104 28
23284 29101 29105 28
23285 29106 29107 28
23286 29106 29108 28
23287 29106 29109 28
23288 29106 29110 28
23289 29111 29112 28
23290 29111 29113 28
23291 29111 29114 28
23292 29111 29115 28
23293 29116 29117 28
23294 29116 29118 28
23295 29116 29119 28
23296 29116 29120 28
23297 29121 29122 28
23298 29121 29123 28
23299 29121 29124 28
23300 29121 29125 28
23301 29126 29127 28
23302 29126 29128 28
23303 29126 29129 28
23304 29126 29130 28
23305 29131 29132 28
23306 29131 29133 28
23307 29131 29134 28
23308 29131 29135 28
23309 29136 29137 28
23310 29136 29138 28
23311 29136 29139 28
23312 29136 29140 28
23313 29141 29142 28
23314 29141 29143 28
23315 29141 29144 28
23316 29141 29145 28
23317 29146 29147 28
23318 29146 29148 28
23319 29146 29149 28
23320 29146 29150 28
23321 29151 29152 28
23322 29151 29153 28
23323 29151 29154 28
23324 29151 29155 28
23325 29156 29157 28
23326 29156 29158 28
23327 29156 29159 28
23328 29156 29160 28
23329 29161 29162 28
23330 29161 29163 28
23331 29161 29164 28
23332 29161 29165 28
23333 29166 29167 28
23334 29166 29168 28
23335 29166 29169 28
23336 29166 29170 28
23337 29171 29172 28
23338 29171 29173 28
23339 29171 29174 28
23340 29171 29175 28
23341 29176 29177 28
23342 29176 29178 28
23343 29176 29179 28
23344 29176 29180 28
23345 29181 29182 28
23346 29181 29183 28
23347 29181 29184 28
23348 29181 29185 28
23349 29186 29187 28
23350 29186 29188 28
23351 29186 29189 28
23352 29186 29190 28
23353 29191 29192 28
23354 29191 29193 28
23355 29191 29194 28
23356 29191 29195 28
23357 29196 29197 28
23358 29196 29198 28
23359 29196 29199 28
23360 29196 29200 28
23361 29201 29202 28
23362 29201 29203 28
23363 29201 29204 28
23364 29201 29205 28
23365 29206 29207 28
23366 29206 29208 28
23367 29206 29209 28
23368 29206 29210 28
23369 29211 29212 28
23370 29211 29213 28
23371 29211 29214 28
23372 29211 29215 28
23373 29216 29217 28
23374 29216 29218 28
23375 29216 29219 28
23376 29216 29220 28
23377 29221 29222 28
23378 29221 29223 28
23379 29221 29224 28
23380 29221 29225 28
23381 29226 29227 28
23382 29226 29228 28
23383 29226 29229 28
23384 29226 29230 28
23385 29231 29232 28
23386 29231 29233 28
23387 29231 29234 28
23388 29231 29235 28
23389 29236 29237 28
23390 29236 29238 28
23391 29236 29239 28
23392 29236 29240 28
23393 29241 29242 28
23394 29241 29243 28
23395 29241 29244 28
23396 29241 29245 28
23397 29246 29247 28
23398 29246 29248 28
23399 29246 29249 28
23400 29246 29250 28
23401 29251 29252 28
23402 29251 29253 28
23403 29251 29254 28
23404 29251 29255 28
23405 29256 29257 28
23406 29256 29258 28
23407 29256 29259 28
23408 29256 29260 28
23409 29261 29262 28
23410 29261 29263 28
23411 29261 29264 28
23412 29261 29265 28
23413 29266 29267 28
23414 29266 29268 28
23415 29266 29269 28
23416 29266 29270 28
23417 29271 29272 28
23418 29271 29273 28
23419 29271 29274 28
23420 29271 29275 28
23421 29276 29277 28
23422 29276 29278 28
23423 29276 29279 28
23424 29276 29280 28
23425 29281 29282 28
23426 29281 29283 28
23427 29281 29284 28
23428 29281 29285 28
23429 29286 29287 28
23430 29286 29288 28
23431 29286 29289 28
23432 29286 29290 28
23433 29291 29292 28
23434 29291 29293 28
23435 29291 29294 28
23436 29291 29295 28
23437 29296 29297 28
23438 29296 29298 28
23439 29296 29299 28
23440 29296 29300 28
23441 29301 29302 28
23442 29301 29303 28
23443 29301 29304 28
23444 29301 29305 28
23445 29306 29307 28
23446 29306 29308 28
23447 29306 29309 28
23448 29306 29310 28
23449 29311 29312 28
23450 29311 29313 28
23451 29311 29314 28
23452 29311 29315 28
23453 29316 29317 28
23454 29316 29318 28
23455 29316 29319 28
23456 29316 29320 28
23457 29321 29322 28
23458 29321 29323 28
23459 29321 29324 28
23460 29321 29325 28
23461 29326 29327 28
23462 29326 29328 28
23463 29326 29329 28
23464 29326 29330 28
23465 29331 29332 28
23466 29331 29333 28
23467 29331 29334 28
23468 29331 29335 28
23469 29336 29337 28
23470 29336 29338 28
23471 29336 29339 28
23472 29336 29340 28
23473 29341 29342 28
23474 29341 29343 28
23475 29341 29344 28
23476 29341 29345 28
23477 29346 29347 28
23478 29346 29348 28
23479 29346 29349 28
23480 29346 29350 28
23481 29351 29352 28
23482 29351 29353 28
23483 29351 29354 28
23484 29351 29355 28
23485 29356 29357 28
23486 29356 29358 28
23487 29356 29359 28
23488 29356 29360 28
23489 29361 29362 28
23490 29361 29363 28
23491 29361 29364 28
23492 29361 29365 28
23493 29366 29367 28
23494 29366 29368 28
23495 29366 29369 28
23496 29366 29370 28
23497 29371 29372 28
23498 29371 29373 28
23499 29371 29374 28
23500 29371 29375 28
23501 29376 29377 28
23502 29376 29378 28
23503 29376 29379 28
23504 29376 29380 28
23505 29381 29382 28
23506 29381 29383 28
23507 29381 29384 28
23508 29381 29385 28
23509 29386 29387 28
23510 29386 29388 28
23511 29386 29389 28
23512 29386 29390 28
23513 29391 29392 28
23514 29391 29393 28
23515 29391 29394 28
23516 29391 29395 28
23517 29396 29397 28
23518 29396 29398 28
23519 29396 29399 28
23520 29396 29400 28
23521 29401 29402 28
23522 29401 29403 28
23523 29401 29404 28
23524 29401 29405 28
23525 29406 29407 28
23526 29406 29408 28
23527 29406 29409 28
23528 29406 29410 28
23529 29411 29412 28
23530 29411 29413 28
23531 29411 29414 28
23532 29411 29415 28
23533 29416 29417 28
23534 29416 29418 28
23535 29416 29419 28
23536 29416 29420 28
23537 29421 29422 28
23538 29421 29423 28
23539 29421 29424 28
23540 29421 29425 28
23541 29426 29427 28
23542 29426 29428 28
23543 29426 29429 28
23544 29426 29430 28
23545 29431 29432 28
23546 29431 29433 28
23547 29431 29434 28
23548 29431 29435 28
23549 29436 29437 28
23550 29436 29438 28
23551 29436 29439 28
23552 29436 29440 28
23553 29441 29442 28
23554 29441 29443 28
23555 29441 29444 28
23556 29441 29445 28
23557 29446 29447 28
23558 29446 29448 28
23559 29446 29449 28
23560 29446 29450 28
23561 29451 29452 28
23562 29451 29453 28
23563 29451 29454 28
23564 29451 29455 28
23565 29456 29457 28
23566 29456 29458 28
23567 29456 29459 28
23568 29456 29460 28
23569 29461 29462 28
23570 29461 29463 28
23571 29461 29464 28
23572 29461 29465 28
23573 29466 29467 28
23574 29466 29468 28
23575 29466 29469 28
23576 29466 29470 28
23577 29471 29472 28
23578 29471 29473 28
23579 29471 29474 28
23580 29471 29475 28
23581 29476 29477 28
23582 29476 29478 28
23583 29476 29479 28
23584 29476 29480 28
23585 29481 29482 28
23586 29481 29483 28
23587 29481 29484 28
23588 29481 29485 28
23589 29486 29487 28
23590 29486 29488 28
23591 29486 29489 28
23592 29486 29490 28
23593 29491 29492 28
23594 29491 29493 28
23595 29491 29494 28
23596 29491 29495 28
23597 29496 29497 28
23598 29496 29498 28
23599 29496 29499 28
23600 29496 29500 28
23601 29501 29502 28
23602 29501 29503 28
23603 29501 29504 28
23604 29501 29505 28
23605 29506 29507 28
23606 29506 29508 28
23607 29506 29509 28
23608 29506 29510 28
23609 29511 29512 28
23610 29511 29513 28
23611 29511 29514 28
23612 29511 29515 28
23613 29516 29517 28
23614 29516 29518 28
23615 29516 29519 28
23616 29516 29520 28
23617 29521 29522 28
23618 29521 29523 28
23619 29521 29524 28
23620 29521 29525 28
23621 29526 29527 28
23622 29526 29528 28
23623 29526 29529 28
23624 29526 29530 28
23625 29531 29532 28
23626 29531 29533 28
23627 29531 29534 28
23628 29531 29535 28
23629 29536 29537 28
23630 29536 29538 28
23631 29536 29539 28
23632 29536 29540 28
23633 29541 29542 28
23634 29541 29543 28
23635 29541 29544 28
23636 29541 29545 28
23637 29546 29547 28
23638 29546 29548 28
23639 29546 29549 28
23640 29546 29550 28
23641 29551 29552 28
23642 29551 29553 28
23643 29551 29554 28
23644 29551 29555 28
23645 29556 29557 28
23646 29556 29558 28
23647 29556 29559 28
23648 29556 29560 28
23649 29561 29562 28
23650 29561 29563 28
23651 29561 29564 28
23652 29561 29565 28
23653 29566 29567 28
23654 29566 29568 28
23655 29566 29569 28
23656 29566 29570 28
23657 29571 29572 28
23658 29571 29573 28
23659 29571 29574 28
23660 29571 29575 28
23661 29576 29577 28
23662 29576 29578 28
23663 29576 29579 28
23664 29576 29580 28
23665 29581 29582 28
23666 29581 29583 28
23667 29581 29584 28
23668 29581 29585 28
23669 29586 29587 28
23670 29586 29588 28
23671 29586 29589 28
23672 29586 29590 28
23673 29591 29592 28
23674 29591 29593 28
23675 29591 29594 28
23676 29591 29595 28
23677 29596 29597 28
23678 29596 29598 28
23679 29596 29599 28
23680 29596 29600 28
23681 29601 29602 28
23682 29601 29603 28
23683 29601 29604 28
23684 29601 29605 28
23685 29606 29607 28
23686 29606 29608 28
23687 29606 29609 28
23688 29606 29610 28
23689 29611 29612 28
23690 29611 29613 28
23691 29611 29614 28
23692 29611 29615 28
23693 29616 29617 28
23694 29616 29618 28
23695 29616 29619 28
23696 29616 29620 28
23697 29621 29622 28
23698 29621 29623 28
23699 29621 29624 28
23700 29621 29625 28
23701 29626 29627 28
23702 29626 29628 28
23703 29626 29629 28
23704 29626 29630 28
23705 29631 29632 28
23706 29631 29633 28
23707 29631 29634 28
23708 29631 29635 28
23709 29636 29637 28
23710 29636 29638 28
23711 29636 29639 28
23712 29636 29640 28
23713 29641 29642 28
23714 29641 29643 28
23715 29641 29644 28
23716 29641 29645 28
23717 29646 29647 28
23718 29646 29648 28
23719 29646 29649 28
23720 29646 29650 28
23721 29651 29652 28
23722 29651 29653 28
23723 29651 29654 28
23724 29651 29655 28
23725 29656 29657 28
23726 29656 29658 28
23727 29656 29659 28
23728 29656 29660 28
23729 29661 29662 28
23730 29661 29663 28
23731 29661 29664 28
23732 29661 29665 28
23733 29666 29667 28
23734 29666 29668 28
23735 29666 29669 28
23736 29666 29670 28
23737 29671 29672 28
23738 29671 29673 28
23739 29671 29674 28
23740 29671 29675 28
23741 29676 29677 28
23742 29676 29678 28
23743 29676 29679 28
23744 29676 29680 28
23745 29681 29682 28
23746 29681 29683 28
23747 29681 29684 28
23748 29681 29685 28
23749 29686 29687 28
23750 29686 29688 28
23751 29686 29689 28
23752 29686 29690 28
23753 29691 29692 28
23754 29691 29693 28
23755 29691 29694 28
23756 29691 29695 28
23757 29696 29697 28
23758 29696 29698 28
23759 29696 29699 28
23760 29696 29700 28
23761 29701 29702 28
23762 29701 29703 28
23763 29701 29704 28
23764 29701 29705 28
23765 29706 29707 28
23766 29706 29708 28
23767 29706 29709 28
23768 29706 29710 28
23769 29711 29712 28
23770 29711 29713 28
23771 29711 29714 28
23772 29711 29715 28
23773 29716 29717 28
23774 29716 29718 28
23775 29716 29719 28
23776 29716 29720 28
23777 29721 29722 28
23778 29721 29723 28
23779 29721 29724 28
23780 29721 29725 28
23781 29726 29727 28
23782 29726 29728 28
23783 29726 29729 28
23784 29726 29730 28
23785 29731 29732 28
23786 29731 29733 28
23787 29731 29734 28
23788 29731 29735 28
23789 29736 29737 28
23790 29736 29738 28
23791 29736 29739 28
23792 29736 29740 28
23793 29741 29742 28
23794 29741 29743 28
23795 29741 29744 28
23796 29741 29745 28
23797 29746 29747 28
23798 29746 29748 28
23799 29746 29749 28
23800 29746 29750 28
23801 29751 29752 28
23802 29751 29753 28
23803 29751 29754 28
23804 29751 29755 28
23805 29756 29757 28
23806 29756 29758 28
23807 29756 29759 28
23808 29756 29760 28
23809 29761 29762 28
23810 29761 29763 28
23811 29761 29764 28
23812 29761 29765 28
23813 29766 29767 28
23814 29766 29768 28
23815 29766 29769 28
23816 29766 29770 28
23817 29771 29772 28
23818 29771 29773 28
23819 29771 29774 28
23820 29771 29775 28
23821 29776 29777 28
23822 29776 29778 28
23823 29776 29779 28
23824 29776 29780 28
23825 29781 29782 28
23826 29781 29783 28
23827 29781 29784 28
23828 29781 29785 28
23829 29786 29787 28
23830 29786 29788 28
23831 29786 29789 28
23832 29786 29790 28
23833 29791 29792 28
23834 29791 29793 28
23835 29791 29794 28
23836 29791 29795 28
23837 29796 29797 28
23838 29796 29798 28
23839 29796 29799 28
23840 29796 29800 28
23841 29801 29802 28
23842 29801 29803 28
23843 29801 29804 28
23844 29801 29805 28
23845 29806 29807 28
23846 29806 29808 28
23847 29806 29809 28
23848 29806 29810 28
23849 29811 29812 28
23850 29811 29813 28
23851 29811 29814 28
23852 29811 29815 28
23853 29816 29817 28
23854 29816 29818 28
23855 29816 29819 28
23856 29816 29820 28
23857 29821 29822 28
23858 29821 29823 28
23859 29821 29824 28
23860 29821 29825 28
23861 29826 29827 28
23862 29826 29828 28
23863 29826 29829 28
23864 29826 29830 28
23865 29831 29832 28
23866 29831 29833 28
23867 29831 29834 28
23868 29831 29835 28
23869 29836 29837 28
23870 29836 29838 28
23871 29836 29839 28
23872 29836 29840 28
23873 29841 29842 28
23874 29841 29843 28
23875 29841 29844 28
23876 29841 29845 28
23877 29846 29847 28
23878 29846 29848 28
23879 29846 29849 28
23880 29846 29850 28
23881 29851 29852 28
23882 29851 29853 28
23883 29851 29854 28
23884 29851 29855 28
23885 29856 29857 28
23886 29856 29858 28
23887 29856 29859 28
23888 29856 29860 28
23889 29861 29862 28
23890 29861 29863 28
23891 29861 29864 28
23892 29861 29865 28
23893 29866 29867 28
23894 29866 29868 28
23895 29866 29869 28
23896 29866 29870 28
23897 29871 29872 28
23898 29871 29873 28
23899 29871 29874 28
23900 29871 29875 28
23901 29876 29877 28
23902 29876 29878 28
23903 29876 29879 28
23904 29876 29880 28
23905 29881 29882 28
23906 29881 29883 28
23907 29881 29884 28
23908 29881 29885 28
23909 29886 29887 28
23910 29886 29888 28
23911 29886 29889 28
23912 29886 29890 28
23913 29891 29892 28
23914 29891 29893 28
23915 29891 29894 28
23916 29891 29895 28
23917 29896 29897 28
23918 29896 29898 28
23919 29896 29899 28
23920 29896 29900 28
23921 29901 29902 28
23922 29901 29903 28
23923 29901 29904 28
23924 29901 29905 28
23925 29906 29907 28
23926 29906 29908 28
23927 29906 29909 28
23928 29906 29910 28
23929 29911 29912 28
23930 29911 29913 28
23931 29911 29914 28
23932 29911 29915 28
23933 29916 29917 28
23934 29916 29918 28
23935 29916 29919 28
23936 29916 29920 28
23937 29921 29922 28
23938 29921 29923 28
23939 29921 29924 28
23940 29921 29925 28
23941 29926 29927 28
23942 29926 29928 28
23943 29926 29929 28
23944 29926 29930 28
23945 29931 29932 28
23946 29931 29933 28
23947 29931 29934 28
23948 29931 29935 28
23949 29936 29937 28
23950 29936 29938 28
23951 29936 29939 28
23952 29936 29940 28
23953 29941 29942 28
23954 29941 29943 28
23955 29941 29944 28
23956 29941 29945 28
23957 29946 29947 28
23958 29946 29948 28
23959 29946 29949 28
23960 29946 29950 28
23961 29951 29952 28
23962 29951 29953 28
23963 29951 29954 28
23964 29951 29955 28
23965 29956 29957 28
23966 29956 29958 28
23967 29956 29959 28
23968 29956 29960 28
23969 29961 29962 28
23970 29961 29963 28
23971 29961 29964 28
23972 29961 29965 28
23973 29966 29967 28
23974 29966 29968 28
23975 29966 29969 28
23976 29966 29970 28
23977 29971 29972 28
23978 29971 29973 28
23979 29971 29974 28
23980 29971 29975 28
23981 29976 29977 28
23982 29976 29978 28
23983 29976 29979 28
23984 29976 29980 28
23985 29981 29982 28
23986 29981 29983 28
23987 29981 29984 28
23988 29981 29985 28
23989 29986 29987 28
23990 29986 29988 28
23991 29986 29989 28
23992 29986 29990 28
23993 29991 29992 28
23994 29991 29993 28
23995 29991 29994 28
23996 29991 29995 28
23997 29996 29997 28
23998 29996 29998 28
23999 29996 29999 28
24000 29996 30000 28
24001 30001 30002 28
24002 30001 30003 28
24003 30001 30004 28
24004 30001 30005 28
24005 30006 30007 28
24006 30006 30008 28
24007 30006 30009 28
24008 30006 30010 28
24009 30011 30012 28
24010 30011 30013 28
24011 30011 30014 28
24012 30011 30015 28
24013 30016 30017 28
24014 30016 30018 28
24015 30016 30019 28
24016 30016 30020 28
24017 30021 30022 28
24018 30021 30023 28
24019 30021 30024 28
24020 30021 30025 28
24021 30026 30027 28
24022 30026 30028 28
24023 30026 30029 28
24024 30026 30030 28
24025 30031 30032 28
24026 30031 30033 28
24027 30031 30034 28
24028 30031 30035 28
24029 30036 30037 28
24030 30036 30038 28
24031 30036 30039 28
24032 30036 30040 28
24033 30041 30042 28
24034 30041 30043 28
24035 30041 30044 28
24036 30041 30045 28
24037 30046 30047 28
24038 30046 30048 28
24039 30046 30049 28
24040 30046 30050 28
24041 30051 30052 28
24042 30051 30053 28
24043 30051 30054 28
24044 30051 30055 28
24045 30056 30057 28
24046 30056 30058 28
24047 30056 30059 28
24048 30056 30060 28
24049 30061 30062 28
24050 30061 30063 28
24051 30061 30064 28
24052 30061 30065 28
24053 30066 30067 28
24054 30066 30068 28
24055 30066 30069 28
24056 30066 30070 28
24057 30071 30072 28
24058 30071 30073 28
24059 30071 30074 28
24060 30071 30075 28
24061 30076 30077 28
24062 30076 30078 28
24063 30076 30079 28
24064 30076 30080 28
24065 30081 30082 28
24066 30081 30083 28
24067 30081 30084 28
24068 30081 30085 28
24069 30086 30087 28
24070 30086 30088 28
24071 30086 30089 28
24072 30086 30090 28
24073 30091 30092 28
24074 30091 30093 28
24075 30091 30094 28
24076 30091 30095 28
24077 30096 30097 28
24078 30096 30098 28
24079 30096 30099 28
24080 30096 30100 28
24081 30101 30102 28
24082 30101 30103 28
24083 30101 30104 28
24084 30101 30105 28
24085 30106 30107 28
24086 30106 30108 28
24087 30106 30109 28
24088 30106 30110 28
24089 30111 30112 28
24090 30111 30113 28
24091 30111 30114 28
24092 30111 30115 28
24093 30116 30117 28
24094 30116 30118 28
24095 30116 30119 28
24096 30116 30120 28
24097 30121 30122 28
24098 30121 30123 28
24099 30121 30124 28
24100 30121 30125 28
24101 30126 30127 28
24102 30126 30128 28
24103 30126 30129 28
24104 30126 30130 28
24105 30131 30132 28
24106 30131 30133 28
24107 30131 30134 28
24108 30131 30135 28
24109 30136 30137 28
24110 30136 30138 28
24111 30136 30139 28
24112 30136 30140 28
24113 30141 30142 28
24114 30141 30143 28
24115 30141 30144 28
24116 30141 30145 28
24117 30146 30147 28
24118 30146 30148 28
24119 30146 30149 28
24120 30146 30150 28
24121 30151 30152 28
24122 30151 30153 28
24123 30151 30154 28
24124 30151 30155 28
24125 30156 30157 28
24126 30156 30158 28
24127 30156 30159 28
24128 30156 30160 28
24129 30161 30162 28
24130 30161 30163 28
24131 30161 30164 28
24132 30161 30165 28
24133 30166 30167 28
24134 30166 30168 28
24135 30166 30169 28
24136 30166 30170 28
24137 30171 30172 28
24138 30171 30173 28
24139 30171 30174 28
24140 30171 30175 28
24141 30176 30177 28
24142 30176 30178 28
24143 30176 30179 28
24144 30176 30180 28
24145 30181 30182 28
24146 30181 30183 28
24147 30181 30184 28
24148 30181 30185 28
24149 30186 30187 28
24150 30186 30188 28
24151 30186 30189 28
24152 30186 30190 28
24153 30191 30192 28
24154 30191 30193 28
24155 30191 30194 28
24156 30191 30195 28
24157 30196 30197 28
24158 30196 30198 28
24159 30196 30199 28
24160 30196 30200 28
24161 30201 30202 28
24162 30201 30203 28
24163 30201 30204 28
24164 30201 30205 28
24165 30206 30207 28
24166 30206 30208 28
24167 30206 30209 28
24168 30206 30210 28
24169 30211 30212 28
24170 30211 30213 28
24171 30211 30214 28
24172 30211 30215 28
24173 30216 30217 28
24174 30216 30218 28
24175 30216 30219 28
24176 30216 30220 28
24177 30221 30222 28
24178 30221 30223 28
24179 30221 30224 28
24180 30221 30225 28
24181 30226 30227 28
24182 30226 30228 28
24183 30226 30229 28
24184 30226 30230 28
24185 30231 30232 28
24186 30231 30233 28
24187 30231 30234 28
24188 30231 30235 28
24189 30236 30237 28
24190 30236 30238 28
24191 30236 30239 28
24192 30236 30240 28
24193 30241 30242 28
24194 30241 30243 28
24195 30241 30244 28
24196 30241 30245 28
24197 30246 30247 28
24198 30246 30248 28
24199 30246 30249 28
24200 30246 30250 28
24201 30251 30252 28
24202 30251 30253 28
24203 30251 30254 28
24204 30251 30255 28
24205 30256 30257 28
24206 30256 30258 28
24207 30256 30259 28
24208 30256 30260 28
24209 30261 30262 28
24210 30261 30263 28
24211 30261 30264 28
24212 30261 30265 28
24213 30266 30267 28
24214 30266 30268 28
24215 30266 30269 28
24216 30266 30270 28
24217 30271 30272 28
24218 30271 30273 28
24219 30271 30274 28
24220 30271 30275 28
24221 30276 30277 28
24222 30276 30278 28
24223 30276 30279 28
24224 30276 30280 28
24225 30281 30282 28
24226 30281 30283 28
24227 30281 30284 28
24228 30281 30285 28
24229 30286 30287 28
24230 30286 30288 28
24231 30286 30289 28
24232 30286 30290 28
24233 30291 30292 28
24234 30291 30293 28
24235 30291 30294 28
24236 30291 30295 28
24237 30296 30297 28
24238 30296 30298 28
24239 30296 30299 28
24240 30296 30300 28
24241 30301 30302 28
24242 30301 30303 28
24243 30301 30304 28
24244 30301 30305 28
24245 30306 30307 28
24246 30306 30308 28
24247 30306 30309 28
24248 30306 30310 28
24249 30311 30312 28
24250 30311 30313 28
24251 30311 30314 28
24252 30311 30315 28
24253 30316 30317 28
24254 30316 30318 28
24255 30316 30319 28
24256 30316 30320 28
24257 30321 30322 28
24258 30321 30323 28
24259 30321 30324 28
24260 30321 30325 28
24261 30326 30327 28
24262 30326 30328 28
24263 30326 30329 28
24264 30326 30330 28
24265 30331 30332 28
24266 30331 30333 28
24267 30331 30334 28
24268 30331 30335 28
24269 30336 30337 28
24270 30336 30338 28
24271 30336 30339 28
24272 30336 30340 28
24273 30341 30342 28
24274 30341 30343 28
24275 30341 30344 28
24276 30341 30345 28
24277 30346 30347 28
24278 30346 30348 28
24279 30346 30349 28
24280 30346 30350 28
24281 30351 30352 28
24282 30351 30353 28
24283 30351 30354 28
24284 30351 30355 28
24285 30356 30357 28
24286 30356 30358 28
24287 30356 30359 28
24288 30356 30360 28
24289 30361 30362 28
24290 30361 30363 28
24291 30361 30364 28
24292 30361 30365 28
24293 30366 30367 28
24294 30366 30368 28
24295 30366 30369 28
24296 30366 30370 28
24297 30371 30372 28
24298 30371 30373 28
24299 30371 30374 28
24300 30371 30375 28
24301 30376 30377 28
24302 30376 30378 28
24303 30376 30379 28
24304 30376 30380 28
24305 30381 30382 28
24306 30381 30383 28
24307 30381 30384 28
24308 30381 30385 28
24309 30386 30387 28
24310 30386 30388 28
24311 30386 30389 28
24312 30386 30390 28
24313 30391 30392 28
24314 30391 30393 28
24315 30391 30394 28
24316 30391 30395 28
24317 30396 30397 28
24318 30396 30398 28
24319 30396 30399 28
24320 30396 30400 28
24321 30401 30402 28
24322 30401 30403 28
24323 30401 30404 28
24324 30401 30405 28
24325 30406 30407 28
24326 30406 30408 28
24327 30406 30409 28
24328 30406 30410 28
24329 30411 30412 28
24330 30411 30413 28
24331 30411 30414 28
24332 30411 30415 28
24333 30416 30417 28
24334 30416 30418 28
24335 30416 30419 28
24336 30416 30420 28
24337 30421 30422 28
24338 30421 30423 28
24339 30421 30424 28
24340 30421 30425 28
24341 30426 30427 28
24342 30426 30428 28
24343 30426 30429 28
24344 30426 30430 28
24345 30431 30432 28
24346 30431 30433 28
24347 30431 30434 28
24348 30431 30435 28
24349 30436 30437 28
24350 30436 30438 28
24351 30436 30439 28
24352 30436 30440 28
24353 30441 30442 28
24354 30441 30443 28
24355 30441 30444 28
24356 30441 30445 28
24357 30446 30447 28
24358 30446 30448 28
24359 30446 30449 28
24360 30446 30450 28
24361 30451 30452 28
24362 30451 30453 28
24363 30451 30454 28
24364 30451 30455 28
24365 30456 30457 28
24366 30456 30458 28
24367 30456 30459 28
24368 30456 30460 28
24369 30461 30462 28
24370 30461 30463 28
24371 30461 30464 28
24372 30461 30465 28
24373 30466 30467 28
24374 30466 30468 28
24375 30466 30469 28
24376 30466 30470 28
24377 30471 30472 28
24378 30471 30473 28
24379 30471 30474 28
24380 30471 30475 28
24381 30476 30477 28
24382 30476 30478 28
24383 30476 30479 28
24384 30476 30480 28
24385 30481 30482 28
24386 30481 30483 28
24387 30481 30484 28
24388 30481 30485 28
24389 30486 30487 28
24390 30486 30488 28
24391 30486 30489 28
24392 30486 30490 28
24393 30491 30492 28
24394 30491 30493 28
24395 30491 30494 28
24396 30491 30495 28
24397 30496 30497 28
24398 30496 30498 28
24399 30496 30499 28
24400 30496 30500 28
24401 30501 30502 28
24402 30501 30503 28
24403 30501 30504 28
24404 30501 30505 28
24405 30506 30507 28
24406 30506 30508 28
24407 30506 30509 28
24408 30506 30510 28
24409 30511 30512 28
24410 30511 30513 28
24411 30511 30514 28
24412 30511 30515 28
24413 30516 30517 28
24414 30516 30518 28
24415 30516 30519 28
24416 30516 30520 28
24417 30521 30522 28
24418 30521 30523 28
24419 30521 30524 28
24420 30521 30525 28
24421 30526 30527 28
24422 30526 30528 28
24423 30526 30529 28
24424 30526 30530 28
24425 30531 30532 28
24426 30531 30533 28
24427 30531 30534 28
24428 30531 30535 28
24429 30536 30537 28
24430 30536 30538 28
24431 30536 30539 28
24432 30536 30540 28
24433 30541 30542 28
24434 30541 30543 28
24435 30541 30544 28
24436 30541 30545 28
24437 30546 30547 28
24438 30546 30548 28
24439 30546 30549 28
24440 30546 30550 28
24441 30551 30552 28
24442 30551 30553 28
24443 30551 30554 28
24444 30551 30555 28
24445 30556 30557 28
24446 30556 30558 28
24447 30556 30559 28
24448 30556 30560 28
24449 30561 30562 28
24450 30561 30563 28
24451 30561 30564 28
24452 30561 30565 28
24453 30566 30567 28
24454 30566 30568 28
24455 30566 30569 28
24456 30566 30570 28
24457 30571 30572 28
24458 30571 30573 28
24459 30571 30574 28
24460 30571 30575 28
24461 30576 30577 28
24462 30576 30578 28
24463 30576 30579 28
24464 30576 30580 28
24465 30581 30582 28
24466 30581 30583 28
24467 30581 30584 28
24468 30581 30585 28
24469 30586 30587 28
24470 30586 30588 28
24471 30586 30589 28
24472 30586 30590 28
24473 30591 30592 28
24474 30591 30593 28
24475 30591 30594 28
24476 30591 30595 28
24477 30596 30597 28
24478 30596 30598 28
24479 30596 30599 28
24480 30596 30600 28
24481 30601 30602 28
24482 30601 30603 28
24483 30601 30604 28
24484 30601 30605 28
24485 30606 30607 28
24486 30606 30608 28
24487 30606 30609 28
24488 30606 30610 28
24489 30611 30612 28
24490 30611 30613 28
24491 30611 30614 28
24492 30611 30615 28
24493 30616 30617 28
24494 30616 30618 28
24495 30616 30619 28
24496 30616 30620 28
24497 30621 30622 28
24498 30621 30623 28
24499 30621 30624 28
24500 30621 30625 28
24501 30626 30627 28
24502 30626 30628 28
24503 30626 30629 28
24504 30626 30630 28
24505 30631 30632 28
24506 30631 30633 28
24507 30631 30634 28
24508 30631 30635 28
24509 30636 30637 28
24510 30636 30638 28
24511 30636 30639 28
24512 30636 30640 28
24513 30641 30642 28
24514 30641 30643 28
24515 30641 30644 28
24516 30641 30645 28
24517 30646 30647 28
24518 30646 30648 28
24519 30646 30649 28
24520 30646 30650 28
24521 30651 30652 28
24522 30651 30653 28
24523 30651 30654 28
24524 30651 30655 28
24525 30656 30657 28
24526 30656 30658 28
24527 30656 30659 28
24528 30656 30660 28
24529 30661 30662 28
24530 30661 30663 28
24531 30661 30664 28
24532 30661 30665 28
24533 30666 30667 28
24534 30666 30668 28
24535 30666 30669 28
24536 30666 30670 28
24537 30671 30672 28
24538 30671 30673 28
24539 30671 30674 28
24540 30671 30675 28
24541 30676 30677 28
24542 30676 30678 28
24543 30676 30679 28
24544 30676 30680 28
24545 30681 30682 28
24546 30681 30683 28
24547 30681 30684 28
24548 30681 30685 28
24549 30686 30687 28
24550 30686 30688 28
24551 30686 30689 28
24552 30686 30690 28
24553 30691 30692 28
24554 30691 30693 28
24555 30691 30694 28
24556 30691 30695 28
24557 30696 30697 28
24558 30696 30698 28
24559 30696 30699 28
24560 30696 30700 28
24561 30701 30702 28
24562 30701 30703 28
24563 30701 30704 28
24564 30701 30705 28
24565 30706 30707 28
24566 30706 30708 28
24567 30706 30709 28
24568 30706 30710 28
24569 30711 30712 28
24570 30711 30713 28
24571 30711 30714 28
24572 30711 30715 28
24573 30716 30717 28
24574 30716 30718 28
24575 30716 30719 28
24576 30716 30720 28
24577 30721 30722 28
24578 30721 30723 28
24579 30721 30724 28
24580 30721 30725 28
24581 30726 30727 28
24582 30726 30728 28
24583 30726 30729 28
24584 30726 30730 28
24585 30731 30732 28
24586 30731 30733 28
24587 30731 30734 28
24588 30731 30735 28
24589 30736 30737 28
24590 30736 30738 28
24591 30736 30739 28
24592 30736 30740 28
24593 30741 30742 28
24594 30741 30743 28
24595 30741 30744 28
24596 30741 30745 28
24597 30746 30747 28
24598 30746 30748 28
24599 30746 30749 28
24600 30746 30750 28
24601 30751 30752 28
24602 30751 30753 28
24603 30751 30754 28
24604 30751 30755 28
24605 30756 30757 28
24606 30756 30758 28
24607 30756 30759 28
24608 30756 30760 28
24609 30761 30762 28
24610 30761 30763 28
24611 30761 30764 28
24612 30761 30765 28
24613 30766 30767 28
24614 30766 30768 28
24615 30766 30769 28
24616 30766 30770 28
24617 30771 30772 28
24618 30771 30773 28
24619 30771 30774 28
24620 30771 30775 28
24621 30776 30777 28
24622 30776 30778 28
24623 30776 30779 28
24624 30776 30780 28
24625 30781 30782 28
24626 30781 30783 28
24627 30781 30784 28
24628 30781 30785 28
24629 30786 30787 28
24630 30786 30788 28
24631 30786 30789 28
24632 30786 30790 28
24633 30791 30792 28
24634 30791 30793 28
24635 30791 30794 28
24636 30791 30795 28
24637 30796 30797 28
24638 30796 30798 28
24639 30796 30799 28
24640 30796 30800 28
24641 30801 30802 28
24642 30801 30803 28
24643 30801 30804 28
24644 30801 30805 28
24645 30806 30807 28
24646 30806 30808 28
24647 30806 30809 28
24648 30806 30810 28
24649 30811 30812 28
24650 30811 30813 28
24651 30811 30814 28
24652 30811 30815 28
24653 30816 30817 28
24654 30816 30818 28
24655 30816 30819 28
24656 30816 30820 28
24657 30821 30822 28
24658 30821 30823 28
24659 30821 30824 28
24660 30821 30825 28
24661 30826 30827 28
24662 30826 30828 28
24663 30826 30829 28
24664 30826 30830 28
24665 30831 30832 28
24666 30831 30833 28
24667 30831 30834 28
24668 30831 30835 28
24669 30836 30837 28
24670 30836 30838 28
24671 30836 30839 28
24672 30836 30840 28
24673 30841 30842 28
24674 30841 30843 28
24675 30841 30844 28
24676 30841 30845 28
24677 30846 30847 28
24678 30846 30848 28
24679 30846 30849 28
24680 30846 30850 28
24681 30851 30852 28
24682 30851 30853 28
24683 30851 30854 28
24684 30851 30855 28
24685 30856 30857 28
24686 30856 30858 28
24687 30856 30859 28
24688 30856 30860 28
24689 30861 30862 28
24690 30861 30863 28
24691 30861 30864 28
24692 30861 30865 28
24693 30866 30867 28
24694 30866 30868 28
24695 30866 30869 28
24696 30866 30870 28
24697 30871 30872 28
24698 30871 30873 28
24699 30871 30874 28
24700 30871 30875 28
24701 30876 30877 28
24702 30876 30878 28
24703 30876 30879 28
24704 30876 30880 28
24705 30881 30882 28
24706 30881 30883 28
24707 30881 30884 28
24708 30881 30885 28
24709 30886 30887 28
24710 30886 30888 28
24711 30886 30889 28
24712 30886 30890 28
24713 30891 30892 28
24714 30891 30893 28
24715 30891 30894 28
24716 30891 30895 28
24717 30896 30897 28
24718 30896 30898 28
24719 30896 30899 28
24720 30896 30900 28
24721 30901 30902 28
24722 30901 30903 28
24723 30901 30904 28
24724 30901 30905 28
24725 30906 30907 28
24726 30906 30908 28
24727 30906 30909 28
24728 30906 30910 28
24729 30911 30912 28
24730 30911 30913 28
24731 30911 30914 28
24732 30911 30915 28
24733 30916 30917 28
24734 30916 30918 28
24735 30916 30919 28
24736 30916 30920 28
24737 30921 30922 28
24738 30921 30923 28
24739 30921 30924 28
24740 30921 30925 28
24741 30926 30927 28
24742 30926 30928 28
24743 30926 30929 28
24744 30926 30930 28
24745 30931 30932 28
24746 30931 30933 28
24747 30931 30934 28
24748 30931 30935 28
24749 30936 30937 28
24750 30936 30938 28
24751 30936 30939 28
24752 30936 30940 28
24753 30941 30942 28
24754 30941 30943 28
24755 30941 30944 28
24756 30941 30945 28
24757 30946 30947 28
24758 30946 30948 28
24759 30946 30949 28
24760 30946 30950 28
24761 30951 30952 28
24762 30951 30953 28
24763 30951 30954 28
24764 30951 30955 28
24765 30956 30957 28
24766 30956 30958 28
24767 30956 30959 28
24768 30956 30960 28
24769 30961 30962 28
24770 30961 30963 28
24771 30961 30964 28
24772 30961 30965 28
24773 30966 30967 28
24774 30966 30968 28
24775 30966 30969 28
24776 30966 30970 28
24777 30971 30972 28
24778 30971 30973 28
24779 30971 30974 28
24780 30971 30975 28
24781 30976 30977 28
24782 30976 30978 28
24783 30976 30979 28
24784 30976 30980 28
24785 30981 30982 28
24786 30981 30983 28
24787 30981 30984 28
24788 30981 30985 28
24789 30986 30987 28
24790 30986 30988 28
24791 30986 30989 28
24792 30986 30990 28
24793 30991 30992 28
24794 30991 30993 28
24795 30991 30994 28
24796 30991 30995 28
24797 30996 30997 28
24798 30996 30998 28
24799 30996 30999 28
24800 30996 31000 28
24801 31001 31002 28
24802 31001 31003 28
24803 31001 31004 28
24804 31001 31005 28
24805 31006 31007 28
24806 31006 31008 28
24807 31006 31009 28
24808 31006 31010 28
24809 31011 31012 28
24810 31011 31013 28
24811 31011 31014 28
24812 31011 31015 28
24813 31016 31017 28
24814 31016 31018 28
24815 31016 31019 28
24816 31016 31020 28
24817 31021 31022 28
24818 31021 31023 28
24819 31021 31024 28
24820 31021 31025 28
24821 31026 31027 28
24822 31026 31028 28
24823 31026 31029 28
24824 31026 31030 28
24825 31031 31032 28
24826 31031 31033 28
24827 31031 31034 28
24828 31031 31035 28
24829 31036 31037 28
24830 31036 31038 28
24831 31036 31039 28
24832 31036 31040 28
24833 31041 31042 28
24834 31041 31043 28
24835 31041 31044 28
24836 31041 31045 28
24837 31046 31047 28
24838 31046 31048 28
24839 31046 31049 28
24840 31046 31050 28
24841 31051 31052 28
24842 31051 31053 28
24843 31051 31054 28
24844 31051 31055 28
24845 31056 31057 28
24846 31056 31058 28
24847 31056 31059 28
24848 31056 31060 28
24849 31061 31062 28
24850 31061 31063 28
24851 31061 31064 28
24852 31061 31065 28
24853 31066 31067 28
24854 31066 31068 28
24855 31066 31069 28
24856 31066 31070 28
24857 31071 31072 28
24858 31071 31073 28
24859 31071 31074 28
24860 31071 31075 28
24861 31076 31077 28
24862 31076 31078 28
24863 31076 31079 28
24864 31076 31080 28
24865 31081 31082 28
24866 31081 31083 28
24867 31081 31084 28
24868 31081 31085 28
24869 31086 31087 28
24870 31086 31088 28
24871 31086 31089 28
24872 31086 31090 28
24873 31091 31092 28
24874 31091 31093 28
24875 31091 31094 28
24876 31091 31095 28
24877 31096 31097 28
24878 31096 31098 28
24879 31096 31099 28
24880 31096 31100 28
24881 31101 31102 28
24882 31101 31103 28
24883 31101 31104 28
24884 31101 31105 28
24885 31106 31107 28
24886 31106 31108 28
24887 31106 31109 28
24888 31106 31110 28
24889 31111 31112 28
24890 31111 31113 28
24891 31111 31114 28
24892 31111 31115 28
24893 31116 31117 28
24894 31116 31118 28
24895 31116 31119 28
24896 31116 31120 28
24897 31121 31122 28
24898 31121 31123 28
24899 31121 31124 28
24900 31121 31125 28
24901 31126 31127 28
24902 31126 31128 28
24903 31126 31129 28
24904 31126 31130 28
24905 31131 31132 28
24906 31131 31133 28
24907 31131 31134 28
24908 31131 31135 28
24909 31136 31137 28
24910 31136 31138 28
24911 31136 31139 28
24912 31136 31140 28
24913 31141 31142 28
24914 31141 31143 28
24915 31141 31144 28
24916 31141 31145 28
24917 31146 31147 28
24918 31146 31148 28
24919 31146 31149 28
24920 31146 31150 28
24921 31151 31152 28
24922 31151 31153 28
24923 31151 31154 28
24924 31151 31155 28
24925 31156 31157 28
24926 31156 31158 28
24927 31156 31159 28
24928 31156 31160 28
24929 31161 31162 28
24930 31161 31163 28
24931 31161 31164 28
24932 31161 31165 28
24933 31166 31167 28
24934 31166 31168 28
24935 31166 31169 28
24936 31166 31170 28
24937 31171 31172 28
24938 31171 31173 28
24939 31171 31174 28
24940 31171 31175 28
24941 31176 31177 28
24942 31176 31178 28
24943 31176 31179 28
24944 31176 31180 28
24945 31181 31182 28
24946 31181 31183 28
24947 31181 31184 28
24948 31181 31185 28
24949 31186 31187 28
24950 31186 31188 28
24951 31186 31189 28
24952 31186 31190 28
24953 31191 31192 28
24954 31191 31193 28
24955 31191 31194 28
24956 31191 31195 28
24957 31196 31197 28
24958 31196 31198 28
24959 31196 31199 28
24960 31196 31200 28
24961 31201 31202 28
24962 31201 31203 28
24963 31201 31204 28
24964 31201 31205 28
24965 31206 31207 28
24966 31206 31208 28
24967 31206 31209 28
24968 31206 31210 28
24969 31211 31212 28
24970 31211 31213 28
24971 31211 31214 28
24972 31211 31215 28
24973 31216 31217 28
24974 31216 31218 28
24975 31216 31219 28
24976 31216 31220 28
24977 31221 31222 28
24978 31221 31223 28
24979 31221 31224 28
24980 31221 31225 28
24981 31226 31227 28
24982 31226 31228 28
24983 31226 31229 28
24984 31226 31230 28
24985 31231 31232 28
24986 31231 31233 28
24987 31231 31234 28
24988 31231 31235 28
24989 31236 31237 28
24990 31236 31238 28
24991 31236 31239 28
24992 31236 31240 28
24993 31241 31242 28
24994 31241 31243 28
24995 31241 31244 28
24996 31241 31245 28
24997 31246 31247 28
24998 31246 31248 28
24999 31246 31249 28
25000 31246 31250 28
25001 31251 31252 28
25002 31251 31253 28
25003 31251 31254 28
25004 31251 31255 28
25005 31256 31257 28
25006 31256 31258 28
25007 31256 31259 28
25008 31256 31260 28
25009 31261 31262 28
25010 31261 31263 28
25011 31261 31264 28
25012 31261 31265 28
25013 31266 31267 28
25014 31266 31268 28
25015 31266 31269 28
25016 31266 31270 28
25017 31271 31272 28
25018 31271 31273 28
25019 31271 31274 28
25020 31271 31275 28
25021 31276 31277 28
25022 31276 31278 28
25023 31276 31279 28
25024 31276 31280 28
25025 31281 31282 28
25026 31281 31283 28
25027 31281 31284 28
25028 31281 31285 28
25029 31286 31287 28
25030 31286 31288 28
25031 31286 31289 28
25032 31286 31290 28
25033 31291 31292 28
25034 31291 31293 28
25035 31291 31294 28
25036 31291 31295 28
25037 31296 31297 28
25038 31296 31298 28
25039 31296 31299 28
25040 31296 31300 28
25041 31301 31302 28
25042 31301 31303 28
25043 31301 31304 28
25044 31301 31305 28
25045 31306 31307 28
25046 31306 31308 28
25047 31306 31309 28
25048 31306 31310 28
25049 31311 31312 28
25050 31311 31313 28
25051 31311 31314 28
25052 31311 31315 28
25053 31316 31317 28
25054 31316 31318 28
25055 31316 31319 28
25056 31316 31320 28
25057 31321 31322 28
25058 31321 31323 28
25059 31321 31324 28
25060 31321 31325 28
25061 31326 31327 28
25062 31326 31328 28
25063 31326 31329 28
25064 31326 31330 28
25065 31331 31332 28
25066 31331 31333 28
25067 31331 31334 28
25068 31331 31335 28
25069 31336 31337 28
25070 31336 31338 28
25071 31336 31339 28
25072 31336 31340 28
25073 31341 31342 28
25074 31341 31343 28
25075 31341 31344 28
25076 31341 31345 28
25077 31346 31347 28
25078 31346 31348 28
25079 31346 31349 28
25080 31346 31350 28
25081 31351 31352 28
25082 31351 31353 28
25083 31351 31354 28
25084 31351 31355 28
25085 31356 31357 28
25086 31356 31358 28
25087 31356 31359 28
25088 31356 31360 28
25089 31361 31362 28
25090 31361 31363 28
25091 31361 31364 28
25092 31361 31365 28
25093 31366 31367 28
25094 31366 31368 28
25095 31366 31369 28
25096 31366 31370 28
25097 31371 31372 28
25098 31371 31373 28
25099 31371 31374 28
25100 31371 31375 28
25101 31376 31377 28
25102 31376 31378 28
25103 31376 31379 28
25104 31376 31380 28
25105 31381 31382 28
25106 31381 31383 28
25107 31381 31384 28
25108 31381 31385 28
25109 31386 31387 28
25110 31386 31388 28
25111 31386 31389 28
25112 31386 31390 28
25113 31391 31392 28
25114 31391 31393 28
25115 31391 31394 28
25116 31391 31395 28
25117 31396 31397 28
25118 31396 31398 28
25119 31396 31399 28
25120 31396 31400 28
25121 31401 31402 28
25122 31401 31403 28
25123 31401 31404 28
25124 31401 31405 28
25125 31406 31407 28
25126 31406 31408 28
25127 31406 31409 28
25128 31406 31410 28
25129 31411 31412 28
25130 31411 31413 28
25131 31411 31414 28
25132 31411 31415 28
25133 31416 31417 28
25134 31416 31418 28
25135 31416 31419 28
25136 31416 31420 28
25137 31421 31422 28
25138 31421 31423 28
25139 31421 31424 28
25140 31421 31425 28
25141 31426 31427 28
25142 31426 31428 28
25143 31426 31429 28
25144 31426 31430 28
25145 31431 31432 28
25146 31431 31433 28
25147 31431 31434 28
25148 31431 31435 28
25149 31436 31437 28
25150 31436 31438 28
25151 31436 31439 28
25152 31436 31440 28
25153 31441 31442 28
25154 31441 31443 28
25155 31441 31444 28
25156 31441 31445 28
25157 31446 31447 28
25158 31446 31448 28
25159 31446 31449 28
25160 31446 31450 28
25161 31451 31452 28
25162 31451 31453 28
25163 31451 31454 28
25164 31451 31455 28
25165 31456 31457 28
25166 31456 31458 28
25167 31456 31459 28
25168 31456 31460 28
25169 31461 31462 28
25170 31461 31463 28
25171 31461 31464 28
25172 31461 31465 28
25173 31466 31467 28
25174 31466 31468 28
25175 31466 31469 28
25176 31466 31470 28
25177 31471 31472 28
25178 31471 31473 28
25179 31471 31474 28
25180 31471 31475 28
25181 31476 31477 28
25182 31476 31478 28
25183 31476 31479 28
25184 31476 31480 28
25185 31481 31482 28
25186 31481 31483 28
25187 31481 31484 28
25188 31481 31485 28
25189 31486 31487 28
25190 31486 31488 28
25191 31486 31489 28
25192 31486 31490 28
25193 31491 31492 28
25194 31491 31493 28
25195 31491 31494 28
25196 31491 31495 28
25197 31496 31497 28
25198 31496 31498 28
25199 31496 31499 28
25200 31496 31500 28
25201 31501 31502 28
25202 31501 31503 28
25203 31501 31504 28
25204 31501 31505 28
25205 31506 31507 28
25206 31506 31508 28
25207 31506 31509 28
25208 31506 31510 28
25209 31511 31512 28
25210 31511 31513 28
25211 31511 31514 28
25212 31511 31515 28
25213 31516 31517 28
25214 31516 31518 28
25215 31516 31519 28
25216 31516 31520 28
25217 31521 31522 28
25218 31521 31523 28
25219 31521 31524 28
25220 31521 31525 28
25221 31526 31527 28
25222 31526 31528 28
25223 31526 31529 28
25224 31526 31530 28
25225 31531 31532 28
25226 31531 31533 28
25227 31531 31534 28
25228 31531 31535 28
25229 31536 31537 28
25230 31536 31538 28
25231 31536 31539 28
25232 31536 31540 28
25233 31541 31542 28
25234 31541 31543 28
25235 31541 31544 28
25236 31541 31545 28
25237 31546 31547 28
25238 31546 31548 28
25239 31546 31549 28
25240 31546 31550 28
25241 31551 31552 28
25242 31551 31553 28
25243 31551 31554 28
25244 31551 31555 28
25245 31556 31557 28
25246 31556 31558 28
25247 31556 31559 28
25248 31556 31560 28
25249 31561 31562 28
25250 31561 31563 28
25251 31561 31564 28
25252 31561 31565 28
25253 31566 31567 28
25254 31566 31568 28
25255 31566 31569 28
25256 31566 31570 28
25257 31571 31572 28
25258 31571 31573 28
25259 31571 31574 28
25260 31571 31575 28
25261 31576 31577 28
25262 31576 31578 28
25263 31576 31579 28
25264 31576 31580 28
25265 31581 31582 28
25266 31581 31583 28
25267 31581 31584 28
25268 31581 31585 28
25269 31586 31587 28
25270 31586 31588 28
25271 31586 31589 28
25272 31586 31590 28
25273 31591 31592 28
25274 31591 31593 28
25275 31591 31594 28
25276 31591 31595 28
25277 31596 31597 28
25278 31596 31598 28
25279 31596 31599 28
25280 31596 31600 28
25281 31601 31602 28
25282 31601 31603 28
25283 31601 31604 28
25284 31601 31605 28
25285 31606 31607 28
25286 31606 31608 28
25287 31606 31609 28
25288 31606 31610 28
25289 31611 31612 28
25290 31611 31613 28
25291 31611 31614 28
25292 31611 31615 28
25293 31616 31617 28
25294 31616 31618 28
25295 31616 31619 28
25296 31616 31620 28
25297 31621 31622 28
25298 31621 31623 28
25299 31621 31624 28
25300 31621 31625 28
25301 31626 31627 28
25302 31626 31628 28
25303 31626 31629 28
25304 31626 31630 28
25305 31631 31632 28
25306 31631 31633 28
25307 31631 31634 28
25308 31631 31635 28
25309 31636 31637 28
25310 31636 31638 28
25311 31636 31639 28
25312 31636 31640 28
25313 31641 31642 28
25314 31641 31643 28
25315 31641 31644 28
25316 31641 31645 28
25317 31646 31647 28
25318 31646 31648 28
25319 31646 31649 28
25320 31646 31650 28
25321 31651 31652 28
25322 31651 31653 28
25323 31651 31654 28
25324 31651 31655 28
25325 31656 31657 28
25326 31656 31658 28
25327 31656 31659 28
25328 31656 31660 28
25329 31661 31662 28
25330 31661 31663 28
25331 31661 31664 28
25332 31661 31665 28
25333 31666 31667 28
25334 31666 31668 28
25335 31666 31669 28
25336 31666 31670 28
25337 31671 31672 28
25338 31671 31673 28
25339 31671 31674 28
25340 31671 31675 28
25341 31676 31677 28
25342 31676 31678 28
25343 31676 31679 28
25344 31676 31680 28
25345 31681 31682 28
25346 31681 31683 28
25347 31681 31684 28
25348 31681 31685 28
25349 31686 31687 28
25350 31686 31688 28
25351 31686 31689 28
25352 31686 31690 28
25353 31691 31692 28
25354 31691 31693 28
25355 31691 31694 28
25356 31691 31695 28
25357 31696 31697 28
25358 31696 31698 28
25359 31696 31699 28
25360 31696 31700 28
25361 31701 31702 28
25362 31701 31703 28
25363 31701 31704 28
25364 31701 31705 28
25365 31706 31707 28
25366 31706 31708 28
25367 31706 31709 28
25368 31706 31710 28
25369 31711 31712 28
25370 31711 31713 28
25371 31711 31714 28
25372 31711 31715 28
25373 31716 31717 28
25374 31716 31718 28
25375 31716 31719 28
25376 31716 31720 28
25377 31721 31722 28
25378 31721 31723 28
25379 31721 31724 28
25380 31721 31725 28
25381 31726 31727 28
25382 31726 31728 28
25383 31726 31729 28
25384 31726 31730 28
25385 31731 31732 28
25386 31731 31733 28
25387 31731 31734 28
25388 31731 31735 28
25389 31736 31737 28
25390 31736 31738 28
25391 31736 31739 28
25392 31736 31740 28
25393 31741 31742 28
25394 31741 31743 28
25395 31741 31744 28
25396 31741 31745 28
25397 31746 31747 28
25398 31746 31748 28
25399 31746 31749 28
25400 31746 31750 28
25401 31751 31752 28
25402 31751 31753 28
25403 31751 31754 28
25404 31751 31755 28
25405 31756 31757 28
25406 31756 31758 28
25407 31756 31759 28
25408 31756 31760 28
25409 31761 31762 28
25410 31761 31763 28
25411 31761 31764 28
25412 31761 31765 28
25413 31766 31767 28
25414 31766 31768 28
25415 31766 31769 28
25416 31766 31770 28
25417 31771 31772 28
25418 31771 31773 28
25419 31771 31774 28
25420 31771 31775 28
25421 31776 31777 28
25422 31776 31778 28
25423 31776 31779 28
25424 31776 31780 28
25425 31781 31782 28
25426 31781 31783 28
25427 31781 31784 28
25428 31781 31785 28
25429 31786 31787 28
25430 31786 31788 28
25431 31786 31789 28
25432 31786 31790 28
25433 31791 31792 28
25434 31791 31793 28
25435 31791 31794 28
25436 31791 31795 28
25437 31796 31797 28
25438 31796 31798 28
25439 31796 31799 28
25440 31796 31800 28
25441 31801 31802 28
25442 31801 31803 28
25443 31801 31804 28
25444 31801 31805 28
25445 31806 31807 28
25446 31806 31808 28
25447 31806 31809 28
25448 31806 31810 28
25449 31811 31812 28
25450 31811 31813 28
25451 31811 31814 28
25452 31811 31815 28
25453 31816 31817 28
25454 31816 31818 28
25455 31816 31819 28
25456 31816 31820 28
25457 31821 31822 28
25458 31821 31823 28
25459 31821 31824 28
25460 31821 31825 28
25461 31826 31827 28
25462 31826 31828 28
25463 31826 31829 28
25464 31826 31830 28
25465 31831 31832 28
25466 31831 31833 28
25467 31831 31834 28
25468 31831 31835 28
25469 31836 31837 28
25470 31836 31838 28
25471 31836 31839 28
25472 31836 31840 28
25473 31841 31842 28
25474 31841 31843 28
25475 31841 31844 28
25476 31841 31845 28
25477 31846 31847 28
25478 31846 31848 28
25479 31846 31849 28
25480 31846 31850 28
25481 31851 31852 28
25482 31851 31853 28
25483 31851 31854 28
25484 31851 31855 28
25485 31856 31857 28
25486 31856 31858 28
25487 31856 31859 28
25488 31856 31860 28
25489 31861 31862 28
25490 31861 31863 28
25491 31861 31864 28
25492 31861 31865 28
25493 31866 31867 28
25494 31866 31868 28
25495 31866 31869 28
25496 31866 31870 28
25497 31871 31872 28
25498 31871 31873 28
25499 31871 31874 28
25500 31871 31875 28
25501 31876 31877 28
25502 31876 31878 28
25503 31876 31879 28
25504 31876 31880 28
25505 31881 31882 28
25506 31881 31883 28
25507 31881 31884 28
25508 31881 31885 28
25509 31886 31887 28
25510 31886 31888 28
25511 31886 31889 28
25512 31886 31890 28
25513 31891 31892 28
25514 31891 31893 28
25515 31891 31894 28
25516 31891 31895 28
25517 31896 31897 28
25518 31896 31898 28
25519 31896 31899 28
25520 31896 31900 28
25521 31901 31902 28
25522 31901 31903 28
25523 31901 31904 28
25524 31901 31905 28
25525 31906 31907 28
25526 31906 31908 28
25527 31906 31909 28
25528 31906 31910 28
25529 31911 31912 28
25530 31911 31913 28
25531 31911 31914 28
25532 31911 31915 28
25533 31916 31917 28
25534 31916 31918 28
25535 31916 31919 28
25536 31916 31920 28
25537 31921 31922 28
25538 31921 31923 28
25539 31921 31924 28
25540 31921 31925 28
25541 31926 31927 28
25542 31926 31928 28
25543 31926 31929 28
25544 31926 31930 28
25545 31931 31932 28
25546 31931 31933 28
25547 31931 31934 28
25548 31931 31935 28
25549 31936 31937 28
25550 31936 31938 28
25551 31936 31939 28
25552 31936 31940 28
25553 31941 31942 28
25554 31941 31943 28
25555 31941 31944 28
25556 31941 31945 28
25557 31946 31947 28
25558 31946 31948 28
25559 31946 31949 28
25560 31946 31950 28
25561 31951 31952 28
25562 31951 31953 28
25563 31951 31954 28
25564 31951 31955 28
25565 31956 31957 28
25566 31956 31958 28
25567 31956 31959 28
25568 31956 31960 28
25569 31961 31962 28
25570 31961 31963 28
25571 31961 31964 28
25572 31961 31965 28
25573 31966 31967 28
25574 31966 31968 28
25575 31966 31969 28
25576 31966 31970 28
25577 31971 31972 28
25578 31971 31973 28
25579 31971 31974 28
25580 31971 31975 28
25581 31976 31977 28
25582 31976 31978 28
25583 31976 31979 28
25584 31976 31980 28
25585 31981 31982 28
25586 31981 31983 28
25587 31981 31984 28
25588 31981 31985 28
25589 31986 31987 28
25590 31986 31988 28
25591 31986 31989 28
25592 31986 31990 28
25593 31991 31992 28
25594 31991 31993 28
25595 31991 31994 28
25596 31991 31995 28
25597 31996 31997 28
25598 31996 31998 28
25599 31996 31999 28
25600 31996 32000 28
25601 32001 32002 28
25602 32001 32003 28
25603 32001 32004 28
25604 32001 32005 28
25605 32006 32007 28
25606 32006 32008 28
25607 32006 32009 28
25608 32006 32010 28
25609 32011 32012 28
25610 32011 32013 28
25611 32011 32014 28
25612 32011 32015 28
25613 32016 32017 28
25614 32016 32018 28
25615 32016 32019 28
25616 32016 32020 28
25617 32021 32022 28
25618 32021 32023 28
25619 32021 32024 28
25620 32021 32025 28
25621 32026 32027 28
25622 32026 32028 28
25623 32026 32029 28
25624 32026 32030 28
25625 32031 32032 28
25626 32031 32033 28
25627 32031 32034 28
25628 32031 32035 28
25629 32036 32037 28
25630 32036 32038 28
25631 32036 32039 28
25632 32036 32040 28
25633 32041 32042 28
25634 32041 32043 28
25635 32041 32044 28
25636 32041 32045 28
25637 32046 32047 28
25638 32046 32048 28
25639 32046 32049 28
25640 32046 32050 28
25641 32051 32052 28
25642 32051 32053 28
25643 32051 32054 28
25644 32051 32055 28
25645 32056 32057 28
25646 32056 32058 28
25647 32056 32059 28
25648 32056 32060 28
25649 32061 32062 28
25650 32061 32063 28
25651 32061 32064 28
25652 32061 32065 28
25653 32066 32067 28
25654 32066 32068 28
25655 32066 32069 28
25656 32066 32070 28
25657 32071 32072 28
25658 32071 32073 28
25659 32071 32074 28
25660 32071 32075 28
25661 32076 32077 28
25662 32076 32078 28
25663 32076 32079 28
25664 32076 32080 28
25665 32081 32082 28
25666 32081 32083 28
25667 32081 32084 28
25668 32081 32085 28
25669 32086 32087 28
25670 32086 32088 28
25671 32086 32089 28
25672 32086 32090 28
25673 32091 32092 28
25674 32091 32093 28
25675 32091 32094 28
25676 32091 32095 28
25677 32096 32097 28
25678 32096 32098 28
25679 32096 32099 28
25680 32096 32100 28
25681 32101 32102 28
25682 32101 32103 28
25683 32101 32104 28
25684 32101 32105 28
25685 32106 32107 28
25686 32106 32108 28
25687 32106 32109 28
25688 32106 32110 28
25689 32111 32112 28
25690 32111 32113 28
25691 32111 32114 28
25692 32111 32115 28
25693 32116 32117 28
25694 32116 32118 28
25695 32116 32119 28
25696 32116 32120 28
25697 32121 32122 28
25698 32121 32123 28
25699 32121 32124 28
25700 32121 32125 28
25701 32126 32127 28
25702 32126 32128 28
25703 32126 32129 28
25704 32126 32130 28
25705 32131 32132 28
25706 32131 32133 28
25707 32131 32134 28
25708 32131 32135 28
25709 32136 32137 28
25710 32136 32138 28
25711 32136 32139 28
25712 32136 32140 28
25713 32141 32142 28
25714 32141 32143 28
25715 32141 32144 28
25716 32141 32145 28
25717 32146 32147 28
25718 32146 32148 28
25719 32146 32149 28
25720 32146 32150 28
25721 32151 32152 28
25722 32151 32153 28
25723 32151 32154 28
25724 32151 32155 28
25725 32156 32157 28
25726 32156 32158 28
25727 32156 32159 28
25728 32156 32160 28
25729 32161 32162 28
25730 32161 32163 28
25731 32161 32164 28
25732 32161 32165 28
25733 32166 32167 28
25734 32166 32168 28
25735 32166 32169 28
25736 32166 32170 28
25737 32171 32172 28
25738 32171 32173 28
25739 32171 32174 28
25740 32171 32175 28
25741 32176 32177 28
25742 32176 32178 28
25743 32176 32179 28
25744 32176 32180 28
25745 32181 32182 28
25746 32181 32183 28
25747 32181 32184 28
25748 32181 32185 28
25749 32186 32187 28
25750 32186 32188 28
25751 32186 32189 28
25752 32186 32190 28
25753 32191 32192 28
25754 32191 32193 28
25755 32191 32194 28
25756 32191 32195 28
25757 32196 32197 28
25758 32196 32198 28
25759 32196 32199 28
25760 32196 32200 28
25761 32201 32202 28
25762 32201 32203 28
25763 32201 32204 28
25764 32201 32205 28
25765 32206 32207 28
25766 32206 32208 28
25767 32206 32209 28
25768 32206 32210 28
25769 32211 32212 28
25770 32211 32213 28
25771 32211 32214 28
25772 32211 32215 28
25773 32216 32217 28
25774 32216 32218 28
25775 32216 32219 28
25776 32216 32220 28
25777 32221 32222 28
25778 32221 32223 28
25779 32221 32224 28
25780 32221 32225 28
25781 32226 32227 28
25782 32226 32228 28
25783 32226 32229 28
25784 32226 32230 28
25785 32231 32232 28
25786 32231 32233 28
25787 32231 32234 28
25788 32231 32235 28
25789 32236 32237 28
25790 32236 32238 28
25791 32236 32239 28
25792 32236 32240 28
25793 32241 32242 28
25794 32241 32243 28
25795 32241 32244 28
25796 32241 32245 28
25797 32246 32247 28
25798 32246 32248 28
25799 32246 32249 28
25800 32246 32250 28
25801 32251 32252 28
25802 32251 32253 28
25803 32251 32254 28
25804 32251 32255 28
25805 32256 32257 28
25806 32256 32258 28
25807 32256 32259 28
25808 32256 32260 28
25809 32261 32262 28
25810 32261 32263 28
25811 32261 32264 28
25812 32261 32265 28
25813 32266 32267 28
25814 32266 32268 28
25815 32266 32269 28
25816 32266 32270 28
25817 32271 32272 28
25818 32271 32273 28
25819 32271 32274 28
25820 32271 32275 28
25821 32276 32277 28
25822 32276 32278 28
25823 32276 32279 28
25824 32276 32280 28
25825 32281 32282 28
25826 32281 32283 28
25827 32281 32284 28
25828 32281 32285 28
25829 32286 32287 28
25830 32286 32288 28
25831 32286 32289 28
25832 32286 32290 28
25833 32291 32292 28
25834 32291 32293 28
25835 32291 32294 28
25836 32291 32295 28
25837 32296 32297 28
25838 32296 32298 28
25839 32296 32299 28
25840 32296 32300 28
25841 32301 32302 28
25842 32301 32303 28
25843 32301 32304 28
25844 32301 32305 28
25845 32306 32307 28
25846 32306 32308 28
25847 32306 32309 28
25848 32306 32310 28
25849 32311 32312 28
25850 32311 32313 28
25851 32311 32314 28
25852 32311 32315 28
25853 32316 32317 28
25854 32316 32318 28
25855 32316 32319 28
25856 32316 32320 28
25857 32321 32322 28
25858 32321 32323 28
25859 32321 32324 28
25860 32321 32325 28
25861 32326 32327 28
25862 32326 32328 28
25863 32326 32329 28
25864 32326 32330 28
25865 32331 32332 28
25866 32331 32333 28
25867 32331 32334 28
25868 32331 32335 28
25869 32336 32337 28
25870 32336 32338 28
25871 32336 32339 28
25872 32336 32340 28
25873 32341 32342 28
25874 32341 32343 28
25875 32341 32344 28
25876 32341 32345 28
25877 32346 32347 28
25878 32346 32348 28
25879 32346 32349 28
25880 32346 32350 28
25881 32351 32352 28
25882 32351 32353 28
25883 32351 32354 28
25884 32351 32355 28
25885 32356 32357 28
25886 32356 32358 28
25887 32356 32359 28
25888 32356 32360 28
25889 32361 32362 28
25890 32361 32363 28
25891 32361 32364 28
25892 32361 32365 28
25893 32366 32367 28
25894 32366 32368 28
25895 32366 32369 28
25896 32366 32370 28
25897 32371 32372 28
25898 32371 32373 28
25899 32371 32374 28
25900 32371 32375 28
25901 32376 32377 28
25902 32376 32378 28
25903 32376 32379 28
25904 32376 32380 28
25905 32381 32382 28
25906 32381 32383 28
25907 32381 32384 28
25908 32381 32385 28
25909 32386 32387 28
25910 32386 32388 28
25911 32386 32389 28
25912 32386 32390 28
25913 32391 32392 28
25914 32391 32393 28
25915 32391 32394 28
25916 32391 32395 28
25917 32396 32397 28
25918 32396 32398 28
25919 32396 32399 28
25920 32396 32400 28
25921 32401 32402 28
25922 32401 32403 28
25923 32401 32404 28
25924 32401 32405 28
25925 32406 32407 28
25926 32406 32408 28
25927 32406 32409 28
25928 32406 32410 28
25929 32411 32412 28
25930 32411 32413 28
25931 32411 32414 28
25932 32411 32415 28
25933 32416 32417 28
25934 32416 32418 28
25935 32416 32419 28
25936 32416 32420 28
25937 32421 32422 28
25938 32421 32423 28
25939 32421 32424 28
25940 32421 32425 28
25941 32426 32427 28
25942 32426 32428 28
25943 32426 32429 28
25944 32426 32430 28
25945 32431 32432 28
25946 32431 32433 28
25947 32431 32434 28
25948 32431 32435 28
25949 32436 32437 28
25950 32436 32438 28
25951 32436 32439 28
25952 32436 32440 28
25953 32441 32442 28
25954 32441 32443 28
25955 32441 32444 28
25956 32441 32445 28
25957 32446 32447 28
25958 32446 32448 28
25959 32446 32449 28
25960 32446 32450 28
25961 32451 32452 28
25962 32451 32453 28
25963 32451 32454 28
25964 32451 32455 28
25965 32456 32457 28
25966 32456 32458 28
25967 32456 32459 28
25968 32456 32460 28
25969 32461 32462 28
25970 32461 32463 28
25971 32461 32464 28
25972 32461 32465 28
25973 32466 32467 28
25974 32466 32468 28
25975 32466 32469 28
25976 32466 32470 28
25977 32471 32472 28
25978 32471 32473 28
25979 32471 32474 28
25980 32471 32475 28
25981 32476 32477 28
25982 32476 32478 28
25983 32476 32479 28
25984 32476 32480 28
25985 32481 32482 28
25986 32481 32483 28
25987 32481 32484 28
25988 32481 32485 28
25989 32486 32487 28
25990 32486 32488 28
25991 32486 32489 28
25992 32486 32490 28
25993 32491 32492 28
25994 32491 32493 28
25995 32491 32494 28
25996 32491 32495 28
25997 32496 32497 28
25998 32496 32498 28
25999 32496 32499 28
26000 32496 32500 28
26001 32501 32502 28
26002 32501 32503 28
26003 32501 32504 28
26004 32501 32505 28
26005 32506 32507 28
26006 32506 32508 28
26007 32506 32509 28
26008 32506 32510 28
26009 32511 32512 28
26010 32511 32513 28
26011 32511 32514 28
26012 32511 32515 28
26013 32516 32517 28
26014 32516 32518 28
26015 32516 32519 28
26016 32516 32520 28
26017 32521 32522 28
26018 32521 32523 28
26019 32521 32524 28
26020 32521 32525 28
26021 32526 32527 28
26022 32526 32528 28
26023 32526 32529 28
26024 32526 32530 28
26025 32531 32532 28
26026 32531 32533 28
26027 32531 32534 28
26028 32531 32535 28
26029 32536 32537 28
26030 32536 32538 28
26031 32536 32539 28
26032 32536 32540 28
26033 32541 32542 28
26034 32541 32543 28
26035 32541 32544 28
26036 32541 32545 28
26037 32546 32547 28
26038 32546 32548 28
26039 32546 32549 28
26040 32546 32550 28
26041 32551 32552 28
26042 32551 32553 28
26043 32551 32554 28
26044 32551 32555 28
26045 32556 32557 28
26046 32556 32558 28
26047 32556 32559 28
26048 32556 32560 28
26049 32561 32562 28
26050 32561 32563 28
26051 32561 32564 28
26052 32561 32565 28
26053 32566 32567 28
26054 32566 32568 28
26055 32566 32569 28
26056 32566 32570 28
26057 32571 32572 28
26058 32571 32573 28
26059 32571 32574 28
26060 32571 32575 28
26061 32576 32577 28
26062 32576 32578 28
26063 32576 32579 28
26064 32576 32580 28
26065 32581 32582 28
26066 32581 32583 28
26067 32581 32584 28
26068 32581 32585 28
26069 32586 32587 28
26070 32586 32588 28
26071 32586 32589 28
26072 32586 32590 28
26073 32591 32592 28
26074 32591 32593 28
26075 32591 32594 28
26076 32591 32595 28
26077 32596 32597 28
26078 32596 32598 28
26079 32596 32599 28
26080 32596 32600 28
26081 32601 32602 28
26082 32601 32603 28
26083 32601 32604 28
26084 32601 32605 28
26085 32606 32607 28
26086 32606 32608 28
26087 32606 32609 28
26088 32606 32610 28
26089 32611 32612 28
26090 32611 32613 28
26091 32611 32614 28
26092 32611 32615 28
26093 32616 32617 28
26094 32616 32618 28
26095 32616 32619 28
26096 32616 32620 28
26097 32621 32622 28
26098 32621 32623 28
26099 32621 32624 28
26100 32621 32625 28
26101 32626 32627 28
26102 32626 32628 28
26103 32626 32629 28
26104 32626 32630 28
26105 32631 32632 28
26106 32631 32633 28
26107 32631 32634 28
26108 32631 32635 28
26109 32636 32637 28
26110 32636 32638 28
26111 32636 32639 28
26112 32636 32640 28
26113 32641 32642 28
26114 32641 32643 28
26115 32641 32644 28
26116 32641 32645 28
26117 32646 32647 28
26118 32646 32648 28
26119 32646 32649 28
26120 32646 32650 28
26121 32651 32652 28
26122 32651 32653 28
26123 32651 32654 28
26124 32651 32655 28
26125 32656 32657 28
26126 32656 32658 28
26127 32656 32659 28
26128 32656 32660 28
26129 32661 32662 28
26130 32661 32663 28
26131 32661 32664 28
26132 32661 32665 28
26133 32666 32667 28
26134 32666 32668 28
26135 32666 32669 28
26136 32666 32670 28
26137 32671 32672 28
26138 32671 32673 28
26139 32671 32674 28
26140 32671 32675 28
26141 32676 32677 28
26142 32676 32678 28
26143 32676 32679 28
26144 32676 32680 28
26145 32681 32682 28
26146 32681 32683 28
26147 32681 32684 28
26148 32681 32685 28
26149 32686 32687 28
26150 32686 32688 28
26151 32686 32689 28
26152 32686 32690 28
26153 32691 32692 28
26154 32691 32693 28
26155 32691 32694 28
26156 32691 32695 28
26157 32696 32697 28
26158 32696 32698 28
26159 32696 32699 28
26160 32696 32700 28
26161 32701 32702 28
26162 32701 32703 28
26163 32701 32704 28
26164 32701 32705 28
26165 32706 32707 28
26166 32706 32708 28
26167 32706 32709 28
26168 32706 32710 28
26169 32711 32712 28
26170 32711 32713 28
26171 32711 32714 28
26172 32711 32715 28
26173 32716 32717 28
26174 32716 32718 28
26175 32716 32719 28
26176 32716 32720 28
26177 32721 32722 28
26178 32721 32723 28
26179 32721 32724 28
26180 32721 32725 28
26181 32726 32727 28
26182 32726 32728 28
26183 32726 32729 28
26184 32726 32730 28
26185 32731 32732 28
26186 32731 32733 28
26187 32731 32734 28
26188 32731 32735 28
26189 32736 32737 28
26190 32736 32738 28
26191 32736 32739 28
26192 32736 32740 28
26193 32741 32742 28
26194 32741 32743 28
26195 32741 32744 28
26196 32741 32745 28
26197 32746 32747 28
26198 32746 32748 28
26199 32746 32749 28
26200 32746 32750 28
26201 32751 32752 28
26202 32751 32753 28
26203 32751 32754 28
26204 32751 32755 28
26205 32756 32757 28
26206 32756 32758 28
26207 32756 32759 28
26208 32756 32760 28
26209 32761 32762 28
26210 32761 32763 28
26211 32761 32764 28
26212 32761 32765 28
26213 32766 32767 28
26214 32766 32768 28
26215 32766 32769 28
26216 32766 32770 28
26217 32771 32772 28
26218 32771 32773 28
26219 32771 32774 28
26220 32771 32775 28
26221 32776 32777 28
26222 32776 32778 28
26223 32776 32779 28
26224 32776 32780 28
26225 32781 32782 28
26226 32781 32783 28
26227 32781 32784 28
26228 32781 32785 28
26229 32786 32787 28
26230 32786 32788 28
26231 32786 32789 28
26232 32786 32790 28
26233 32791 32792 28
26234 32791 32793 28
26235 32791 32794 28
26236 32791 32795 28
26237 32796 32797 28
26238 32796 32798 28
26239 32796 32799 28
26240 32796 32800 28
26241 32801 32802 28
26242 32801 32803 28
26243 32801 32804 28
26244 32801 32805 28
26245 32806 32807 28
26246 32806 32808 28
26247 32806 32809 28
26248 32806 32810 28
26249 32811 32812 28
26250 32811 32813 28
26251 32811 32814 28
26252 32811 32815 28
26253 32816 32817 28
26254 32816 32818 28
26255 32816 32819 28
26256 32816 32820 28
26257 32821 32822 28
26258 32821 32823 28
26259 32821 32824 28
26260 32821 32825 28
26261 32826 32827 28
26262 32826 32828 28
26263 32826 32829 28
26264 32826 32830 28
26265 32831 32832 28
26266 32831 32833 28
26267 32831 32834 28
26268 32831 32835 28
26269 32836 32837 28
26270 32836 32838 28
26271 32836 32839 28
26272 32836 32840 28
26273 32841 32842 28
26274 32841 32843 28
26275 32841 32844 28
26276 32841 32845 28
26277 32846 32847 28
26278 32846 32848 28
26279 32846 32849 28
26280 32846 32850 28
26281 32851 32852 28
26282 32851 32853 28
26283 32851 32854 28
26284 32851 32855 28
26285 32856 32857 28
26286 32856 32858 28
26287 32856 32859 28
26288 32856 32860 28
26289 32861 32862 28
26290 32861 32863 28
26291 32861 32864 28
26292 32861 32865 28
26293 32866 32867 28
26294 32866 32868 28
26295 32866 32869 28
26296 32866 32870 28
26297 32871 32872 28
26298 32871 32873 28
26299 32871 32874 28
26300 32871 32875 28
26301 32876 32877 28
26302 32876 32878 28
26303 32876 32879 28
26304 32876 32880 28
26305 32881 32882 28
26306 32881 32883 28
26307 32881 32884 28
26308 32881 32885 28
26309 32886 32887 28
26310 32886 32888 28
26311 32886 32889 28
26312 32886 32890 28
26313 32891 32892 28
26314 32891 32893 28
26315 32891 32894 28
26316 32891 32895 28
26317 32896 32897 28
26318 32896 32898 28
26319 32896 32899 28
26320 32896 32900 28
26321 32901 32902 28
26322 32901 32903 28
26323 32901 32904 28
26324 32901 32905 28
26325 32906 32907 28
26326 32906 32908 28
26327 32906 32909 28
26328 32906 32910 28
26329 32911 32912 28
26330 32911 32913 28
26331 32911 32914 28
26332 32911 32915 28
26333 32916 32917 28
26334 32916 32918 28
26335 32916 32919 28
26336 32916 32920 28
26337 32921 32922 28
26338 32921 32923 28
26339 32921 32924 28
26340 32921 32925 28
26341 32926 32927 28
26342 32926 32928 28
26343 32926 32929 28
26344 32926 32930 28
26345 32931 32932 28
26346 32931 32933 28
26347 32931 32934 28
26348 32931 32935 28
26349 32936 32937 28
26350 32936 32938 28
26351 32936 32939 28
26352 32936 32940 28
26353 32941 32942 28
26354 32941 32943 28
26355 32941 32944 28
26356 32941 32945 28
26357 32946 32947 28
26358 32946 32948 28
26359 32946 32949 28
26360 32946 32950 28
26361 32951 32952 28
26362 32951 32953 28
26363 32951 32954 28
26364 32951 32955 28
26365 32956 32957 28
26366 32956 32958 28
26367 32956 32959 28
26368 32956 32960 28
26369 32961 32962 28
26370 32961 32963 28
26371 32961 32964 28
26372 32961 32965 28
26373 32966 32967 28
26374 32966 32968 28
26375 32966 32969 28
26376 32966 32970 28
26377 32971 32972 28
26378 32971 32973 28
26379 32971 32974 28
26380 32971 32975 28
26381 32976 32977 28
26382 32976 32978 28
26383 32976 32979 28
26384 32976 32980 28
26385 32981 32982 28
26386 32981 32983 28
26387 32981 32984 28
26388 32981 32985 28
26389 32986 32987 28
26390 32986 32988 28
26391 32986 32989 28
26392 32986 32990 28
26393 32991 32992 28
26394 32991 32993 28
26395 32991 32994 28
26396 32991 32995 28
26397 32996 32997 28
26398 32996 32998 28
26399 32996 32999 28
26400 32996 33000 28
26401 33001 33002 28
26402 33001 33003 28
26403 33001 33004 28
26404 33001 33005 28
26405 33006 33007 28
26406 33006 33008 28
26407 33006 33009 28
26408 33006 33010 28
26409 33011 33012 28
26410 33011 33013 28
26411 33011 33014 28
26412 33011 33015 28
26413 33016 33017 28
26414 33016 33018 28
26415 33016 33019 28
26416 33016 33020 28
26417 33021 33022 28
26418 33021 33023 28
26419 33021 33024 28
26420 33021 33025 28
26421 33026 33027 28
26422 33026 33028 28
26423 33026 33029 28
26424 33026 33030 28
26425 33031 33032 28
26426 33031 33033 28
26427 33031 33034 28
26428 33031 33035 28
26429 33036 33037 28
26430 33036 33038 28
26431 33036 33039 28
26432 33036 33040 28
26433 33041 33042 28
26434 33041 33043 28
26435 33041 33044 28
26436 33041 33045 28
26437 33046 33047 28
26438 33046 33048 28
26439 33046 33049 28
26440 33046 33050 28
26441 33051 33052 28
26442 33051 33053 28
26443 33051 33054 28
26444 33051 33055 28
26445 33056 33057 28
26446 33056 33058 28
26447 33056 33059 28
26448 33056 33060 28
26449 33061 33062 28
26450 33061 33063 28
26451 33061 33064 28
26452 33061 33065 28
26453 33066 33067 28
26454 33066 33068 28
26455 33066 33069 28
26456 33066 33070 28
26457 33071 33072 28
26458 33071 33073 28
26459 33071 33074 28
26460 33071 33075 28
26461 33076 33077 28
26462 33076 33078 28
26463 33076 33079 28
26464 33076 33080 28
26465 33081 33082 28
26466 33081 33083 28
26467 33081 33084 28
26468 33081 33085 28
26469 33086 33087 28
26470 33086 33088 28
26471 33086 33089 28
26472 33086 33090 28
26473 33091 33092 28
26474 33091 33093 28
26475 33091 33094 28
26476 33091 33095 28
26477 33096 33097 28
26478 33096 33098 28
26479 33096 33099 28
26480 33096 33100 28
26481 33101 33102 28
26482 33101 33103 28
26483 33101 33104 28
26484 33101 33105 28
26485 33106 33107 28
26486 33106 33108 28
26487 33106 33109 28
26488 33106 33110 28
26489 33111 33112 28
26490 33111 33113 28
26491 33111 33114 28
26492 33111 33115 28
26493 33116 33117 28
26494 33116 33118 28
26495 33116 33119 28
26496 33116 33120 28
26497 33121 33122 28
26498 33121 33123 28
26499 33121 33124 28
26500 33121 33125 28
26501 33126 33127 28
26502 33126 33128 28
26503 33126 33129 28
26504 33126 33130 28
26505 33131 33132 28
26506 33131 33133 28
26507 33131 33134 28
26508 33131 33135 28
26509 33136 33137 28
26510 33136 33138 28
26511 33136 33139 28
26512 33136 33140 28
26513 33141 33142 28
26514 33141 33143 28
26515 33141 33144 28
26516 33141 33145 28
26517 33146 33147 28
26518 33146 33148 28
26519 33146 33149 28
26520 33146 33150 28
26521 33151 33152 28
26522 33151 33153 28
26523 33151 33154 28
26524 33151 33155 28
26525 33156 33157 28
26526 33156 33158 28
26527 33156 33159 28
26528 33156 33160 28
26529 33161 33162 28
26530 33161 33163 28
26531 33161 33164 28
26532 33161 33165 28
26533 33166 33167 28
26534 33166 33168 28
26535 33166 33169 28
26536 33166 33170 28
26537 33171 33172 28
26538 33171 33173 28
26539 33171 33174 28
26540 33171 33175 28
26541 33176 33177 28
26542 33176 33178 28
26543 33176 33179 28
26544 33176 33180 28
26545 33181 33182 28
26546 33181 33183 28
26547 33181 33184 28
26548 33181 33185 28
26549 33186 33187 28
26550 33186 33188 28
26551 33186 33189 28
26552 33186 33190 28
26553 33191 33192 28
26554 33191 33193 28
26555 33191 33194 28
26556 33191 33195 28
26557 33196 33197 28
26558 33196 33198 28
26559 33196 33199 28
26560 33196 33200 28
26561 33201 33202 28
26562 33201 33203 28
26563 33201 33204 28
26564 33201 33205 28
26565 33206 33207 28
26566 33206 33208 28
26567 33206 33209 28
26568 33206 33210 28
26569 33211 33212 28
26570 33211 33213 28
26571 33211 33214 28
26572 33211 33215 28
26573 33216 33217 28
26574 33216 33218 28
26575 33216 33219 28
26576 33216 33220 28
26577 33221 33222 28
26578 33221 33223 28
26579 33221 33224 28
26580 33221 33225 28
26581 33226 33227 28
26582 33226 33228 28
26583 33226 33229 28
26584 33226 33230 28
26585 33231 33232 28
26586 33231 33233 28
26587 33231 33234 28
26588 33231 33235 28
26589 33236 33237 28
26590 33236 33238 28
26591 33236 33239 28
26592 33236 33240 28
26593 33241 33242 28
26594 33241 33243 28
26595 33241 33244 28
26596 33241 33245 28
26597 33246 33247 28
26598 33246 33248 28
26599 33246 33249 28
26600 33246 33250 28
26601 33251 33252 28
26602 33251 33253 28
26603 33251 33254 28
26604 33251 33255 28
26605 33256 33257 28
26606 33256 33258 28
26607 33256 33259 28
26608 33256 33260 28
26609 33261 33262 28
26610 33261 33263 28
26611 33261 33264 28
26612 33261 33265 28
26613 33266 33267 28
26614 33266 33268 28
26615 33266 33269 28
26616 33266 33270 28
26617 33271 33272 28
26618 33271 33273 28
26619 33271 33274 28
26620 33271 33275 28
26621 33276 33277 28
26622 33276 33278 28
26623 33276 33279 28
26624 33276 33280 28
26625 33281 33282 28
26626 33281 33283 28
26627 33281 33284 28
26628 33281 33285 28
26629 33286 33287 28
26630 33286 33288 28
26631 33286 33289 28
26632 33286 33290 28
26633 33291 33292 28
26634 33291 33293 28
26635 33291 33294 28
26636 33291 33295 28
26637 33296 33297 28
26638 33296 33298 28
26639 33296 33299 28
26640 33296 33300 28
26641 33301 33302 28
26642 33301 33303 28
26643 33301 33304 28
26644 33301 33305 28
26645 33306 33307 28
26646 33306 33308 28
26647 33306 33309 28
26648 33306 33310 28
26649 33311 33312 28
26650 33311 33313 28
26651 33311 33314 28
26652 33311 33315 28
26653 33316 33317 28
26654 33316 33318 28
26655 33316 33319 28
26656 33316 33320 28
26657 33321 33322 28
26658 33321 33323 28
26659 33321 33324 28
26660 33321 33325 28
26661 33326 33327 28
26662 33326 33328 28
26663 33326 33329 28
26664 33326 33330 28
26665 33331 33332 28
26666 33331 33333 28
26667 33331 33334 28
26668 33331 33335 28
26669 33336 33337 28
26670 33336 33338 28
26671 33336 33339 28
26672 33336 33340 28
26673 33341 33342 28
26674 33341 33343 28
26675 33341 33344 28
26676 33341 33345 28
26677 33346 33347 28
26678 33346 33348 28
26679 33346 33349 28
26680 33346 33350 28
26681 33351 33352 28
26682 33351 33353 28
26683 33351 33354 28
26684 33351 33355 28
26685 33356 33357 28
26686 33356 33358 28
26687 33356 33359 28
26688 33356 33360 28
26689 33361 33362 28
26690 33361 33363 28
26691 33361 33364 28
26692 33361 33365 28
26693 33366 33367 28
26694 33366 33368 28
26695 33366 33369 28
26696 33366 33370 28
26697 33371 33372 28
26698 33371 33373 28
26699 33371 33374 28
26700 33371 33375 28
26701 33376 33377 28
26702 33376 33378 28
26703 33376 33379 28
26704 33376 33380 28
26705 33381 33382 28
26706 33381 33383 28
26707 33381 33384 28
26708 33381 33385 28
26709 33386 33387 28
26710 33386 33388 28
26711 33386 33389 28
26712 33386 33390 28
26713 33391 33392 28
26714 33391 33393 28
26715 33391 33394 28
26716 33391 33395 28
26717 33396 33397 28
26718 33396 33398 28
26719 33396 33399 28
26720 33396 33400 28
26721 33401 33402 28
26722 33401 33403 28
26723 33401 33404 28
26724 33401 33405 28
26725 33406 33407 28
26726 33406 33408 28
26727 33406 33409 28
26728 33406 33410 28
26729 33411 33412 28
26730 33411 33413 28
26731 33411 33414 28
26732 33411 33415 28
26733 33416 33417 28
26734 33416 33418 28
26735 33416 33419 28
26736 33416 33420 28
26737 33421 33422 28
26738 33421 33423 28
26739 33421 33424 28
26740 33421 33425 28
26741 33426 33427 28
26742 33426 33428 28
26743 33426 33429 28
26744 33426 33430 28
26745 33431 33432 28
26746 33431 33433 28
26747 33431 33434 28
26748 33431 33435 28
26749 33436 33437 28
26750 33436 33438 28
26751 33436 33439 28
26752 33436 33440 28
26753 33441 33442 28
26754 33441 33443 28
26755 33441 33444 28
26756 33441 33445 28
26757 33446 33447 28
26758 33446 33448 28
26759 33446 33449 28
26760 33446 33450 28
26761 33451 33452 28
26762 33451 33453 28
26763 33451 33454 28
26764 33451 33455 28
26765 33456 33457 28
26766 33456 33458 28
26767 33456 33459 28
26768 33456 33460 28
26769 33461 33462 28
26770 33461 33463 28
26771 33461 33464 28
26772 33461 33465 28
26773 33466 33467 28
26774 33466 33468 28
26775 33466 33469 28
26776 33466 33470 28
26777 33471 33472 28
26778 33471 33473 28
26779 33471 33474 28
26780 33471 33475 28
26781 33476 33477 28
26782 33476 33478 28
26783 33476 33479 28
26784 33476 33480 28
26785 33481 33482 28
26786 33481 33483 28
26787 33481 33484 28
26788 33481 33485 28
26789 33486 33487 28
26790 33486 33488 28
26791 33486 33489 28
26792 33486 33490 28
26793 33491 33492 28
26794 33491 33493 28
26795 33491 33494 28
26796 33491 33495 28
26797 33496 33497 28
26798 33496 33498 28
26799 33496 33499 28
26800 33496 33500 28
26801 33501 33502 28
26802 33501 33503 28
26803 33501 33504 28
26804 33501 33505 28
26805 33506 33507 28
26806 33506 33508 28
26807 33506 33509 28
26808 33506 33510 28
26809 33511 33512 28
26810 33511 33513 28
26811 33511 33514 28
26812 33511 33515 28
26813 33516 33517 28
26814 33516 33518 28
26815 33516 33519 28
26816 33516 33520 28
26817 33521 33522 28
26818 33521 33523 28
26819 33521 33524 28
26820 33521 33525 28
26821 33526 33527 28
26822 33526 33528 28
26823 33526 33529 28
26824 33526 33530 28
26825 33531 33532 28
26826 33531 33533 28
26827 33531 33534 28
26828 33531 33535 28
26829 33536 33537 28
26830 33536 33538 28
26831 33536 33539 28
26832 33536 33540 28
26833 33541 33542 28
26834 33541 33543 28
26835 33541 33544 28
26836 33541 33545 28
26837 33546 33547 28
26838 33546 33548 28
26839 33546 33549 28
26840 33546 33550 28
26841 33551 33552 28
26842 33551 33553 28
26843 33551 33554 28
26844 33551 33555 28
26845 33556 33557 28
26846 33556 33558 28
26847 33556 33559 28
26848 33556 33560 28
26849 33561 33562 28
26850 33561 33563 28
26851 33561 33564 28
26852 33561 33565 28
26853 33566 33567 28
26854 33566 33568 28
26855 33566 33569 28
26856 33566 33570 28
26857 33571 33572 28
26858 33571 33573 28
26859 33571 33574 28
26860 33571 33575 28
26861 33576 33577 28
26862 33576 33578 28
26863 33576 33579 28
26864 33576 33580 28
26865 33581 33582 28
26866 33581 33583 28
26867 33581 33584 28
26868 33581 33585 28
26869 33586 33587 28
26870 33586 33588 28
26871 33586 33589 28
26872 33586 33590 28
26873 33591 33592 28
26874 33591 33593 28
26875 33591 33594 28
26876 33591 33595 28
26877 33596 33597 28
26878 33596 33598 28
26879 33596 33599 28
26880 33596 33600 28
26881 33601 33602 28
26882 33601 33603 28
26883 33601 33604 28
26884 33601 33605 28
26885 33606 33607 28
26886 33606 33608 28
26887 33606 33609 28
26888 33606 33610 28
26889 33611 33612 28
26890 33611 33613 28
26891 33611 33614 28
26892 33611 33615 28
26893 33616 33617 28
26894 33616 33618 28
26895 33616 33619 28
26896 33616 33620 28
26897 33621 33622 28
26898 33621 33623 28
26899 33621 33624 28
26900 33621 33625 28
26901 33626 33627 28
26902 33626 33628 28
26903 33626 33629 28
26904 33626 33630 28
26905 33631 33632 28
26906 33631 33633 28
26907 33631 33634 28
26908 33631 33635 28
26909 33636 33637 28
26910 33636 33638 28
26911 33636 33639 28
26912 33636 33640 28
26913 33641 33642 28
26914 33641 33643 28
26915 33641 33644 28
26916 33641 33645 28
26917 33646 33647 28
26918 33646 33648 28
26919 33646 33649 28
26920 33646 33650 28
26921 33651 33652 28
26922 33651 33653 28
26923 33651 33654 28
26924 33651 33655 28
26925 33656 33657 28
26926 33656 33658 28
26927 33656 33659 28
26928 33656 33660 28
26929 33661 33662 28
26930 33661 33663 28
26931 33661 33664 28
26932 33661 33665 28
26933 33666 33667 28
26934 33666 33668 28
26935 33666 33669 28
26936 33666 33670 28
26937 33671 33672 28
26938 33671 33673 28
26939 33671 33674 28
26940 33671 33675 28
26941 33676 33677 28
26942 33676 33678 28
26943 33676 33679 28
26944 33676 33680 28
26945 33681 33682 28
26946 33681 33683 28
26947 33681 33684 28
26948 33681 33685 28
26949 33686 33687 28
26950 33686 33688 28
26951 33686 33689 28
26952 33686 33690 28
26953 33691 33692 28
26954 33691 33693 28
26955 33691 33694 28
26956 33691 33695 28
26957 33696 33697 28
26958 33696 33698 28
26959 33696 33699 28
26960 33696 33700 28
26961 33701 33702 28
26962 33701 33703 28
26963 33701 33704 28
26964 33701 33705 28
26965 33706 33707 28
26966 33706 33708 28
26967 33706 33709 28
26968 33706 33710 28
26969 33711 33712 28
26970 33711 33713 28
26971 33711 33714 28
26972 33711 33715 28
26973 33716 33717 28
26974 33716 33718 28
26975 33716 33719 28
26976 33716 33720 28
26977 33721 33722 28
26978 33721 33723 28
26979 33721 33724 28
26980 33721 33725 28
26981 33726 33727 28
26982 33726 33728 28
26983 33726 33729 28
26984 33726 33730 28
26985 33731 33732 28
26986 33731 33733 28
26987 33731 33734 28
26988 33731 33735 28
26989 33736 33737 28
26990 33736 33738 28
26991 33736 33739 28
26992 33736 33740 28
26993 33741 33742 28
26994 33741 33743 28
26995 33741 33744 28
26996 33741 33745 28
26997 33746 33747 28
26998 33746 33748 28
26999 33746 33749 28
27000 33746 33750 28
27001 33751 33752 28
27002 33751 33753 28
27003 33751 33754 28
27004 33751 33755 28
27005 33756 33757 28
27006 33756 33758 28
27007 33756 33759 28
27008 33756 33760 28
27009 33761 33762 28
27010 33761 33763 28
27011 33761 33764 28
27012 33761 33765 28
27013 33766 33767 28
27014 33766 33768 28
27015 33766 33769 28
27016 33766 33770 28
27017 33771 33772 28
27018 33771 33773 28
27019 33771 33774 28
27020 33771 33775 28
27021 33776 33777 28
27022 33776 33778 28
27023 33776 33779 28
27024 33776 33780 28
27025 33781 33782 28
27026 33781 33783 28
27027 33781 33784 28
27028 33781 33785 28
27029 33786 33787 28
27030 33786 33788 28
27031 33786 33789 28
27032 33786 33790 28
27033 33791 33792 28
27034 33791 33793 28
27035 33791 33794 28
27036 33791 33795 28
27037 33796 33797 28
27038 33796 33798 28
27039 33796 33799 28
27040 33796 33800 28
27041 33801 33802 28
27042 33801 33803 28
27043 33801 33804 28
27044 33801 33805 28
27045 33806 33807 28
27046 33806 33808 28
27047 33806 33809 28
27048 33806 33810 28
27049 33811 33812 28
27050 33811 33813 28
27051 33811 33814 28
27052 33811 33815 28
27053 33816 33817 28
27054 33816 33818 28
27055 33816 33819 28
27056 33816 33820 28
27057 33821 33822 28
27058 33821 33823 28
27059 33821 33824 28
27060 33821 33825 28
27061 33826 33827 28
27062 33826 33828 28
27063 33826 33829 28
27064 33826 33830 28
27065 33831 33832 28
27066 33831 33833 28
27067 33831 33834 28
27068 33831 33835 28
27069 33836 33837 28
27070 33836 33838 28
27071 33836 33839 28
27072 33836 33840 28
27073 33841 33842 28
27074 33841 33843 28
27075 33841 33844 28
27076 33841 33845 28
27077 33846 33847 28
27078 33846 33848 28
27079 33846 33849 28
27080 33846 33850 28
27081 33851 33852 28
27082 33851 33853 28
27083 33851 33854 28
27084 33851 33855 28
27085 33856 33857 28
27086 33856 33858 28
27087 33856 33859 28
27088 33856 33860 28
27089 33861 33862 28
27090 33861 33863 28
27091 33861 33864 28
27092 33861 33865 28
27093 33866 33867 28
27094 33866 33868 28
27095 33866 33869 28
27096 33866 33870 28
27097 33871 33872 28
27098 33871 33873 28
27099 33871 33874 28
27100 33871 33875 28
27101 33876 33877 28
27102 33876 33878 28
27103 33876 33879 28
27104 33876 33880 28
27105 33881 33882 28
27106 33881 33883 28
27107 33881 33884 28
27108 33881 33885 28
27109 33886 33887 28
27110 33886 33888 28
27111 33886 33889 28
27112 33886 33890 28
27113 33891 33892 28
27114 33891 33893 28
27115 33891 33894 28
27116 33891 33895 28
27117 33896 33897 28
27118 33896 33898 28
27119 33896 33899 28
27120 33896 33900 28
27121 33901 33902 28
27122 33901 33903 28
27123 33901 33904 28
27124 33901 33905 28
27125 33906 33907 28
27126 33906 33908 28
27127 33906 33909 28
27128 33906 33910 28
27129 33911 33912 28
27130 33911 33913 28
27131 33911 33914 28
27132 33911 33915 28
27133 33916 33917 28
27134 33916 33918 28
27135 33916 33919 28
27136 33916 33920 28
27137 33921 33922 28
27138 33921 33923 28
27139 33921 33924 28
27140 33921 33925 28
27141 33926 33927 28
27142 33926 33928 28
27143 33926 33929 28
27144 33926 33930 28
27145 33931 33932 28
27146 33931 33933 28
27147 33931 33934 28
27148 33931 33935 28
27149 33936 33937 28
27150 33936 33938 28
27151 33936 33939 28
27152 33936 33940 28
27153 33941 33942 28
27154 33941 33943 28
27155 33941 33944 28
27156 33941 33945 28
27157 33946 33947 28
27158 33946 33948 28
27159 33946 33949 28
27160 33946 33950 28
27161 33951 33952 28
27162 33951 33953 28
27163 33951 33954 28
27164 33951 33955 28
27165 33956 33957 28
27166 33956 33958 28
27167 33956 33959 28
27168 33956 33960 28
27169 33961 33962 28
27170 33961 33963 28
27171 33961 33964 28
27172 33961 33965 28
27173 33966 33967 28
27174 33966 33968 28
27175 33966 33969 28
27176 33966 33970 28
27177 33971 33972 28
27178 33971 33973 28
27179 33971 33974 28
27180 33971 33975 28
27181 33976 33977 28
27182 33976 33978 28
27183 33976 33979 28
27184 33976 33980 28
27185 33981 33982 28
27186 33981 33983 28
27187 33981 33984 28
27188 33981 33985 28
27189 33986 33987 28
27190 33986 33988 28
27191 33986 33989 28
27192 33986 33990 28
27193 33991 33992 28
27194 33991 33993 28
27195 33991 33994 28
27196 33991 33995 28
27197 33996 33997 28
27198 33996 33998 28
27199 33996 33999 28
27200 33996 34000 28
27201 34001 34002 28
27202 34001 34003 28
27203 34001 34004 28
27204 34001 34005 28
27205 34006 34007 28
27206 34006 34008 28
27207 34006 34009 28
27208 34006 34010 28
27209 34011 34012 28
27210 34011 34013 28
27211 34011 34014 28
27212 34011 34015 28
27213 34016 34017 28
27214 34016 34018 28
27215 34016 34019 28
27216 34016 34020 28
27217 34021 34022 28
27218 34021 34023 28
27219 34021 34024 28
27220 34021 34025 28
27221 34026 34027 28
27222 34026 34028 28
27223 34026 34029 28
27224 34026 34030 28
27225 34031 34032 28
27226 34031 34033 28
27227 34031 34034 28
27228 34031 34035 28
27229 34036 34037 28
27230 34036 34038 28
27231 34036 34039 28
27232 34036 34040 28
27233 34041 34042 28
27234 34041 34043 28
27235 34041 34044 28
27236 34041 34045 28
27237 34046 34047 28
27238 34046 34048 28
27239 34046 34049 28
27240 34046 34050 28
27241 34051 34052 28
27242 34051 34053 28
27243 34051 34054 28
27244 34051 34055 28
27245 34056 34057 28
27246 34056 34058 28
27247 34056 34059 28
27248 34056 34060 28
27249 34061 34062 28
27250 34061 34063 28
27251 34061 34064 28
27252 34061 34065 28
27253 34066 34067 28
27254 34066 34068 28
27255 34066 34069 28
27256 34066 34070 28
27257 34071 34072 28
27258 34071 34073 28
27259 34071 34074 28
27260 34071 34075 28
27261 34076 34077 28
27262 34076 34078 28
27263 34076 34079 28
27264 34076 34080 28
27265 34081 34082 28
27266 34081 34083 28
27267 34081 34084 28
27268 34081 34085 28
27269 34086 34087 28
27270 34086 34088 28
27271 34086 34089 28
27272 34086 34090 28
27273 34091 34092 28
27274 34091 34093 28
27275 34091 34094 28
27276 34091 34095 28
27277 34096 34097 28
27278 34096 34098 28
27279 34096 34099 28
27280 34096 34100 28
27281 34101 34102 28
27282 34101 34103 28
27283 34101 34104 28
27284 34101 34105 28
27285 34106 34107 28
27286 34106 34108 28
27287 34106 34109 28
27288 34106 34110 28
27289 34111 34112 28
27290 34111 34113 28
27291 34111 34114 28
27292 34111 34115 28
27293 34116 34117 28
27294 34116 34118 28
27295 34116 34119 28
27296 34116 34120 28
27297 34121 34122 28
27298 34121 34123 28
27299 34121 34124 28
27300 34121 34125 28
27301 34126 34127 28
27302 34126 34128 28
27303 34126 34129 28
27304 34126 34130 28
27305 34131 34132 28
27306 34131 34133 28
27307 34131 34134 28
27308 34131 34135 28
27309 34136 34137 28
27310 34136 34138 28
27311 34136 34139 28
27312 34136 34140 28
27313 34141 34142 28
27314 34141 34143 28
27315 34141 34144 28
27316 34141 34145 28
27317 34146 34147 28
27318 34146 34148 28
27319 34146 34149 28
27320 34146 34150 28
27321 34151 34152 28
27322 34151 34153 28
27323 34151 34154 28
27324 34151 34155 28
27325 34156 34157 28
27326 34156 34158 28
27327 34156 34159 28
27328 34156 34160 28
27329 34161 34162 28
27330 34161 34163 28
27331 34161 34164 28
27332 34161 34165 28
27333 34166 34167 28
27334 34166 34168 28
27335 34166 34169 28
27336 34166 34170 28
27337 34171 34172 28
27338 34171 34173 28
27339 34171 34174 28
27340 34171 34175 28
27341 34176 34177 28
27342 34176 34178 28
27343 34176 34179 28
27344 34176 34180 28
27345 34181 34182 28
27346 34181 34183 28
27347 34181 34184 28
27348 34181 34185 28
27349 34186 34187 28
27350 34186 34188 28
27351 34186 34189 28
27352 34186 34190 28
27353 34191 34192 28
27354 34191 34193 28
27355 34191 34194 28
27356 34191 34195 28
27357 34196 34197 28
27358 34196 34198 28
27359 34196 34199 28
27360 34196 34200 28
27361 34201 34202 28
27362 34201 34203 28
27363 34201 34204 28
27364 34201 34205 28
27365 34206 34207 28
27366 34206 34208 28
27367 34206 34209 28
27368 34206 34210 28
27369 34211 34212 28
27370 34211 34213 28
27371 34211 34214 28
27372 34211 34215 28
27373 34216 34217 28
27374 34216 34218 28
27375 34216 34219 28
27376 34216 34220 28
27377 34221 34222 28
27378 34221 34223 28
27379 34221 34224 28
27380 34221 34225 28
27381 34226 34227 28
27382 34226 34228 28
27383 34226 34229 28
27384 34226 34230 28
27385 34231 34232 28
27386 34231 34233 28
27387 34231 34234 28
27388 34231 34235 28
27389 34236 34237 28
27390 34236 34238 28
27391 34236 34239 28
27392 34236 34240 28
27393 34241 34242 28
27394 34241 34243 28
27395 34241 34244 28
27396 34241 34245 28
27397 34246 34247 28
27398 34246 34248 28
27399 34246 34249 28
27400 34246 34250 28
27401 34251 34252 28
27402 34251 34253 28
27403 34251 34254 28
27404 34251 34255 28
27405 34256 34257 28
27406 34256 34258 28
27407 34256 34259 28
27408 34256 34260 28
27409 34261 34262 28
27410 34261 34263 28
27411 34261 34264 28
27412 34261 34265 28
27413 34266 34267 28
27414 34266 34268 28
27415 34266 34269 28
27416 34266 34270 28
27417 34271 34272 28
27418 34271 34273 28
27419 34271 34274 28
27420 34271 34275 28
27421 34276 34277 28
27422 34276 34278 28
27423 34276 34279 28
27424 34276 34280 28
27425 34281 34282 28
27426 34281 34283 28
27427 34281 34284 28
27428 34281 34285 28
27429 34286 34287 28
27430 34286 34288 28
27431 34286 34289 28
27432 34286 34290 28
27433 34291 34292 28
27434 34291 34293 28
27435 34291 34294 28
27436 34291 34295 28
27437 34296 34297 28
27438 34296 34298 28
27439 34296 34299 28
27440 34296 34300 28
27441 34301 34302 28
27442 34301 34303 28
27443 34301 34304 28
27444 34301 34305 28
27445 34306 34307 28
27446 34306 34308 28
27447 34306 34309 28
27448 34306 34310 28
27449 34311 34312 28
27450 34311 34313 28
27451 34311 34314 28
27452 34311 34315 28
27453 34316 34317 28
27454 34316 34318 28
27455 34316 34319 28
27456 34316 34320 28
27457 34321 34322 28
27458 34321 34323 28
27459 34321 34324 28
27460 34321 34325 28
27461 34326 34327 28
27462 34326 34328 28
27463 34326 34329 28
27464 34326 34330 28
27465 34331 34332 28
27466 34331 34333 28
27467 34331 34334 28
27468 34331 34335 28
27469 34336 34337 28
27470 34336 34338 28
27471 34336 34339 28
27472 34336 34340 28
27473 34341 34342 28
27474 34341 34343 28
27475 34341 34344 28
27476 34341 34345 28
27477 34346 34347 28
27478 34346 34348 28
27479 34346 34349 28
27480 34346 34350 28
27481 34351 34352 28
27482 34351 34353 28
27483 34351 34354 28
27484 34351 34355 28
27485 34356 34357 28
27486 34356 34358 28
27487 34356 34359 28
27488 34356 34360 28
27489 34361 34362 28
27490 34361 34363 28
27491 34361 34364 28
27492 34361 34365 28
27493 34366 34367 28
27494 34366 34368 28
27495 34366 34369 28
27496 34366 34370 28
27497 34371 34372 28
27498 34371 34373 28
27499 34371 34374 28
27500 34371 34375 28
27501 34376 34377 28
27502 34376 34378 28
27503 34376 34379 28
27504 34376 34380 28
27505 34381 34382 28
27506 34381 34383 28
27507 34381 34384 28
27508 34381 34385 28
27509 34386 34387 28
27510 34386 34388 28
27511 34386 34389 28
27512 34386 34390 28
27513 34391 34392 28
27514 34391 34393 28
27515 34391 34394 28
27516 34391 34395 28
27517 34396 34397 28
27518 34396 34398 28
27519 34396 34399 28
27520 34396 34400 28
27521 34401 34402 28
27522 34401 34403 28
27523 34401 34404 28
27524 34401 34405 28
27525 34406 34407 28
27526 34406 34408 28
27527 34406 34409 28
27528 34406 34410 28
27529 34411 34412 28
27530 34411 34413 28
27531 34411 34414 28
27532 34411 34415 28
27533 34416 34417 28
27534 34416 34418 28
27535 34416 34419 28
27536 34416 34420 28
27537 34421 34422 28
27538 34421 34423 28
27539 34421 34424 28
27540 34421 34425 28
27541 34426 34427 28
27542 34426 34428 28
27543 34426 34429 28
27544 34426 34430 28
27545 34431 34432 28
27546 34431 34433 28
27547 34431 34434 28
27548 34431 34435 28
27549 34436 34437 28
27550 34436 34438 28
27551 34436 34439 28
27552 34436 34440 28
27553 34441 34442 28
27554 34441 34443 28
27555 34441 34444 28
27556 34441 34445 28
27557 34446 34447 28
27558 34446 34448 28
27559 34446 34449 28
27560 34446 34450 28
27561 34451 34452 28
27562 34451 34453 28
27563 34451 34454 28
27564 34451 34455 28
27565 34456 34457 28
27566 34456 34458 28
27567 34456 34459 28
27568 34456 34460 28
27569 34461 34462 28
27570 34461 34463 28
27571 34461 34464 28
27572 34461 34465 28
27573 34466 34467 28
27574 34466 34468 28
27575 34466 34469 28
27576 34466 34470 28
27577 34471 34472 28
27578 34471 34473 28
27579 34471 34474 28
27580 34471 34475 28
27581 34476 34477 28
27582 34476 34478 28
27583 34476 34479 28
27584 34476 34480 28
27585 34481 34482 28
27586 34481 34483 28
27587 34481 34484 28
27588 34481 34485 28
27589 34486 34487 28
27590 34486 34488 28
27591 34486 34489 28
27592 34486 34490 28
27593 34491 34492 28
27594 34491 34493 28
27595 34491 34494 28
27596 34491 34495 28
27597 34496 34497 28
27598 34496 34498 28
27599 34496 34499 28
27600 34496 34500 28
27601 34501 34502 28
27602 34501 34503 28
27603 34501 34504 28
27604 34501 34505 28
27605 34506 34507 28
27606 34506 34508 28
27607 34506 34509 28
27608 34506 34510 28
27609 34511 34512 28
27610 34511 34513 28
27611 34511 34514 28
27612 34511 34515 28
27613 34516 34517 28
27614 34516 34518 28
27615 34516 34519 28
27616 34516 34520 28
27617 34521 34522 28
27618 34521 34523 28
27619 34521 34524 28
27620 34521 34525 28
27621 34526 34527 28
27622 34526 34528 28
27623 34526 34529 28
27624 34526 34530 28
27625 34531 34532 28
27626 34531 34533 28
27627 34531 34534 28
27628 34531 34535 28
27629 34536 34537 28
27630 34536 34538 28
27631 34536 34539 28
27632 34536 34540 28
27633 34541 34542 28
27634 34541 34543 28
27635 34541 34544 28
27636 34541 34545 28
27637 34546 34547 28
27638 34546 34548 28
27639 34546 34549 28
27640 34546 34550 28
27641 34551 34552 28
27642 34551 34553 28
27643 34551 34554 28
27644 34551 34555 28
27645 34556 34557 28
27646 34556 34558 28
27647 34556 34559 28
27648 34556 34560 28
27649 34561 34562 28
27650 34561 34563 28
27651 34561 34564 28
27652 34561 34565 28
27653 34566 34567 28
27654 34566 34568 28
27655 34566 34569 28
27656 34566 34570 28
27657 34571 34572 28
27658 34571 34573 28
27659 34571 34574 28
27660 34571 34575 28
27661 34576 34577 28
27662 34576 34578 28
27663 34576 34579 28
27664 34576 34580 28
27665 34581 34582 28
27666 34581 34583 28
27667 34581 34584 28
27668 34581 34585 28
27669 34586 34587 28
27670 34586 34588 28
27671 34586 34589 28
27672 34586 34590 28
27673 34591 34592 28
27674 34591 34593 28
27675 34591 34594 28
27676 34591 34595 28
27677 34596 34597 28
27678 34596 34598 28
27679 34596 34599 28
27680 34596 34600 28
27681 34601 34602 28
27682 34601 34603 28
27683 34601 34604 28
27684 34601 34605 28
27685 34606 34607 28
27686 34606 34608 28
27687 34606 34609 28
27688 34606 34610 28
27689 34611 34612 28
27690 34611 34613 28
27691 34611 34614 28
27692 34611 34615 28
27693 34616 34617 28
27694 34616 34618 28
27695 34616 34619 28
27696 34616 34620 28
27697 34621 34622 28
27698 34621 34623 28
27699 34621 34624 28
27700 34621 34625 28
27701 34626 34627 28
27702 34626 34628 28
27703 34626 34629 28
27704 34626 34630 28
27705 34631 34632 28
27706 34631 34633 28
27707 34631 34634 28
27708 34631 34635 28
27709 34636 34637 28
27710 34636 34638 28
27711 34636 34639 28
27712 34636 34640 28
27713 34641 34642 28
27714 34641 34643 28
27715 34641 34644 28
27716 34641 34645 28
27717 34646 34647 28
27718 34646 34648 28
27719 34646 34649 28
27720 34646 34650 28
27721 34651 34652 28
27722 34651 34653 28
27723 34651 34654 28
27724 34651 34655 28
27725 34656 34657 28
27726 34656 34658 28
27727 34656 34659 28
27728 34656 34660 28
27729 34661 34662 28
27730 34661 34663 28
27731 34661 34664 28
27732 34661 34665 28
27733 34666 34667 28
27734 34666 34668 28
27735 34666 34669 28
27736 34666 34670 28
27737 34671 34672 28
27738 34671 34673 28
27739 34671 34674 28
27740 34671 34675 28
27741 34676 34677 28
27742 34676 34678 28
27743 34676 34679 28
27744 34676 34680 28
27745 34681 34682 28
27746 34681 34683 28
27747 34681 34684 28
27748 34681 34685 28
27749 34686 34687 28
27750 34686 34688 28
27751 34686 34689 28
27752 34686 34690 28
27753 34691 34692 28
27754 34691 34693 28
27755 34691 34694 28
27756 34691 34695 28
27757 34696 34697 28
27758 34696 34698 28
27759 34696 34699 28
27760 34696 34700 28
27761 34701 34702 28
27762 34701 34703 28
27763 34701 34704 28
27764 34701 34705 28
27765 34706 34707 28
27766 34706 34708 28
27767 34706 34709 28
27768 34706 34710 28
27769 34711 34712 28
27770 34711 34713 28
27771 34711 34714 28
27772 34711 34715 28
27773 34716 34717 28
27774 34716 34718 28
27775 34716 34719 28
27776 34716 34720 28
27777 34721 34722 28
27778 34721 34723 28
27779 34721 34724 28
27780 34721 34725 28
27781 34726 34727 28
27782 34726 34728 28
27783 34726 34729 28
27784 34726 34730 28
27785 34731 34732 28
27786 34731 34733 28
27787 34731 34734 28
27788 34731 34735 28
27789 34736 34737 28
27790 34736 34738 28
27791 34736 34739 28
27792 34736 34740 28
27793 34741 34742 28
27794 34741 34743 28
27795 34741 34744 28
27796 34741 34745 28
27797 34746 34747 28
27798 34746 34748 28
27799 34746 34749 28
27800 34746 34750 28
27801 34751 34752 28
27802 34751 34753 28
27803 34751 34754 28
27804 34751 34755 28
27805 34756 34757 28
27806 34756 34758 28
27807 34756 34759 28
27808 34756 34760 28
27809 34761 34762 28
27810 34761 34763 28
27811 34761 34764 28
27812 34761 34765 28
27813 34766 34767 28
27814 34766 34768 28
27815 34766 34769 28
27816 34766 34770 28
27817 34771 34772 28
27818 34771 34773 28
27819 34771 34774 28
27820 34771 34775 28
27821 34776 34777 28
27822 34776 34778 28
27823 34776 34779 28
27824 34776 34780 28
27825 34781 34782 28
27826 34781 34783 28
27827 34781 34784 28
27828 34781 34785 28
27829 34786 34787 28
27830 34786 34788 28
27831 34786 34789 28
27832 34786 34790 28
27833 34791 34792 28
27834 34791 34793 28
27835 34791 34794 28
27836 34791 34795 28
27837 34796 34797 28
27838 34796 34798 28
27839 34796 34799 28
27840 34796 34800 28
27841 34801 34802 28
27842 34801 34803 28
27843 34801 34804 28
27844 34801 34805 28
27845 34806 34807 28
27846 34806 34808 28
27847 34806 34809 28
27848 34806 34810 28
27849 34811 34812 28
27850 34811 34813 28
27851 34811 34814 28
27852 34811 34815 28
27853 34816 34817 28
27854 34816 34818 28
27855 34816 34819 28
27856 34816 34820 28
27857 34821 34822 28
27858 34821 34823 28
27859 34821 34824 28
27860 34821 34825 28
27861 34826 34827 28
27862 34826 34828 28
27863 34826 34829 28
27864 34826 34830 28
27865 34831 34832 28
27866 34831 34833 28
27867 34831 34834 28
27868 34831 34835 28
27869 34836 34837 28
27870 34836 34838 28
27871 34836 34839 28
27872 34836 34840 28
27873 34841 34842 28
27874 34841 34843 28
27875 34841 34844 28
27876 34841 34845 28
27877 34846 34847 28
27878 34846 34848 28
27879 34846 34849 28
27880 34846 34850 28
27881 34851 34852 28
27882 34851 34853 28
27883 34851 34854 28
27884 34851 34855 28
27885 34856 34857 28
27886 34856 34858 28
27887 34856 34859 28
27888 34856 34860 28
27889 34861 34862 28
27890 34861 34863 28
27891 34861 34864 28
27892 34861 34865 28
27893 34866 34867 28
27894 34866 34868 28
27895 34866 34869 28
27896 34866 34870 28
27897 34871 34872 28
27898 34871 34873 28
27899 34871 34874 28
27900 34871 34875 28
27901 34876 34877 28
27902 34876 34878 28
27903 34876 34879 28
27904 34876 34880 28
27905 34881 34882 28
27906 34881 34883 28
27907 34881 34884 28
27908 34881 34885 28
27909 34886 34887 28
27910 34886 34888 28
27911 34886 34889 28
27912 34886 34890 28
27913 34891 34892 28
27914 34891 34893 28
27915 34891 34894 28
27916 34891 34895 28
27917 34896 34897 28
27918 34896 34898 28
27919 34896 34899 28
27920 34896 34900 28
27921 34901 34902 28
27922 34901 34903 28
27923 34901 34904 28
27924 34901 34905 28
27925 34906 34907 28
27926 34906 34908 28
27927 34906 34909 28
27928 34906 34910 28
27929 34911 34912 28
27930 34911 34913 28
27931 34911 34914 28
27932 34911 34915 28
27933 34916 34917 28
27934 34916 34918 28
27935 34916 34919 28
27936 34916 34920 28
27937 34921 34922 28
27938 34921 34923 28
27939 34921 34924 28
27940 34921 34925 28
27941 34926 34927 28
27942 34926 34928 28
27943 34926 34929 28
27944 34926 34930 28
27945 34931 34932 28
27946 34931 34933 28
27947 34931 34934 28
27948 34931 34935 28
27949 34936 34937 28
27950 34936 34938 28
27951 34936 34939 28
27952 34936 34940 28
27953 34941 34942 28
27954 34941 34943 28
27955 34941 34944 28
27956 34941 34945 28
27957 34946 34947 28
27958 34946 34948 28
27959 34946 34949 28
27960 34946 34950 28
27961 34951 34952 28
27962 34951 34953 28
27963 34951 34954 28
27964 34951 34955 28
27965 34956 34957 28
27966 34956 34958 28
27967 34956 34959 28
27968 34956 34960 28
27969 34961 34962 28
27970 34961 34963 28
27971 34961 34964 28
27972 34961 34965 28
27973 34966 34967 28
27974 34966 34968 28
27975 34966 34969 28
27976 34966 34970 28
27977 34971 34972 28
27978 34971 34973 28
27979 34971 34974 28
27980 34971 34975 28
27981 34976 34977 28
27982 34976 34978 28
27983 34976 34979 28
27984 34976 34980 28
27985 34981 34982 28
27986 34981 34983 28
27987 34981 34984 28
27988 34981 34985 28
27989 34986 34987 28
27990 34986 34988 28
27991 34986 34989 28
27992 34986 34990 28
27993 34991 34992 28
27994 34991 34993 28
27995 34991 34994 28
27996 34991 34995 28
27997 34996 34997 28
27998 34996 34998 28
27999 34996 34999 28
28000 34996 35000 28
28001 35001 35002 28
28002 35001 35003 28
28003 35001 35004 28
28004 35001 35005 28
28005 35006 35007 28
28006 35006 35008 28
28007 35006 35009 28
28008 35006 35010 28
28009 35011 35012 28
28010 35011 35013 28
28011 35011 35014 28
28012 35011 35015 28
28013 35016 35017 28
28014 35016 35018 28
28015 35016 35019 28
28016 35016 35020 28
28017 35021 35022 28
28018 35021 35023 28
28019 35021 35024 28
28020 35021 35025 28
28021 35026 35027 28
28022 35026 35028 28
28023 35026 35029 28
28024 35026 35030 28
28025 35031 35032 28
28026 35031 35033 28
28027 35031 35034 28
28028 35031 35035 28
28029 35036 35037 28
28030 35036 35038 28
28031 35036 35039 28
28032 35036 35040 28
28033 35041 35042 28
28034 35041 35043 28
28035 35041 35044 28
28036 35041 35045 28
28037 35046 35047 28
28038 35046 35048 28
28039 35046 35049 28
28040 35046 35050 28
28041 35051 35052 28
28042 35051 35053 28
28043 35051 35054 28
28044 35051 35055 28
28045 35056 35057 28
28046 35056 35058 28
28047 35056 35059 28
28048 35056 35060 28
28049 35061 35062 28
28050 35061 35063 28
28051 35061 35064 28
28052 35061 35065 28
28053 35066 35067 28
28054 35066 35068 28
28055 35066 35069 28
28056 35066 35070 28
28057 35071 35072 28
28058 35071 35073 28
28059 35071 35074 28
28060 35071 35075 28
28061 35076 35077 28
28062 35076 35078 28
28063 35076 35079 28
28064 35076 35080 28
28065 35081 35082 28
28066 35081 35083 28
28067 35081 35084 28
28068 35081 35085 28
28069 35086 35087 28
28070 35086 35088 28
28071 35086 35089 28
28072 35086 35090 28
28073 35091 35092 28
28074 35091 35093 28
28075 35091 35094 28
28076 35091 35095 28
28077 35096 35097 28
28078 35096 35098 28
28079 35096 35099 28
28080 35096 35100 28
28081 35101 35102 28
28082 35101 35103 28
28083 35101 35104 28
28084 35101 35105 28
28085 35106 35107 28
28086 35106 35108 28
28087 35106 35109 28
28088 35106 35110 28
28089 35111 35112 28
28090 35111 35113 28
28091 35111 35114 28
28092 35111 35115 28
28093 35116 35117 28
28094 35116 35118 28
28095 35116 35119 28
28096 35116 35120 28
28097 35121 35122 28
28098 35121 35123 28
28099 35121 35124 28
28100 35121 35125 28
28101 35126 35127 28
28102 35126 35128 28
28103 35126 35129 28
28104 35126 35130 28
28105 35131 35132 28
28106 35131 35133 28
28107 35131 35134 28
28108 35131 35135 28
28109 35136 35137 28
28110 35136 35138 28
28111 35136 35139 28
28112 35136 35140 28
28113 35141 35142 28
28114 35141 35143 28
28115 35141 35144 28
28116 35141 35145 28
28117 35146 35147 28
28118 35146 35148 28
28119 35146 35149 28
28120 35146 35150 28
28121 35151 35152 28
28122 35151 35153 28
28123 35151 35154 28
28124 35151 35155 28
28125 35156 35157 28
28126 35156 35158 28
28127 35156 35159 28
28128 35156 35160 28
28129 35161 35162 28
28130 35161 35163 28
28131 35161 35164 28
28132 35161 35165 28
28133 35166 35167 28
28134 35166 35168 28
28135 35166 35169 28
28136 35166 35170 28
28137 35171 35172 28
28138 35171 35173 28
28139 35171 35174 28
28140 35171 35175 28
28141 35176 35177 28
28142 35176 35178 28
28143 35176 35179 28
28144 35176 35180 28
28145 35181 35182 28
28146 35181 35183 28
28147 35181 35184 28
28148 35181 35185 28
28149 35186 35187 28
28150 35186 35188 28
28151 35186 35189 28
28152 35186 35190 28
28153 35191 35192 28
28154 35191 35193 28
28155 35191 35194 28
28156 35191 35195 28
28157 35196 35197 28
28158 35196 35198 28
28159 35196 35199 28
28160 35196 35200 28
28161 35201 35202 28
28162 35201 35203 28
28163 35201 35204 28
28164 35201 35205 28
28165 35206 35207 28
28166 35206 35208 28
28167 35206 35209 28
28168 35206 35210 28
28169 35211 35212 28
28170 35211 35213 28
28171 35211 35214 28
28172 35211 35215 28
28173 35216 35217 28
28174 35216 35218 28
28175 35216 35219 28
28176 35216 35220 28
28177 35221 35222 28
28178 35221 35223 28
28179 35221 35224 28
28180 35221 35225 28
28181 35226 35227 28
28182 35226 35228 28
28183 35226 35229 28
28184 35226 35230 28
28185 35231 35232 28
28186 35231 35233 28
28187 35231 35234 28
28188 35231 35235 28
28189 35236 35237 28
28190 35236 35238 28
28191 35236 35239 28
28192 35236 35240 28
28193 35241 35242 28
28194 35241 35243 28
28195 35241 35244 28
28196 35241 35245 28
28197 35246 35247 28
28198 35246 35248 28
28199 35246 35249 28
28200 35246 35250 28
28201 35251 35252 28
28202 35251 35253 28
28203 35251 35254 28
28204 35251 35255 28
28205 35256 35257 28
28206 35256 35258 28
28207 35256 35259 28
28208 35256 35260 28
28209 35261 35262 28
28210 35261 35263 28
28211 35261 35264 28
28212 35261 35265 28
28213 35266 35267 28
28214 35266 35268 28
28215 35266 35269 28
28216 35266 35270 28
28217 35271 35272 28
28218 35271 35273 28
28219 35271 35274 28
28220 35271 35275 28
28221 35276 35277 28
28222 35276 35278 28
28223 35276 35279 28
28224 35276 35280 28
28225 35281 35282 28
28226 35281 35283 28
28227 35281 35284 28
28228 35281 35285 28
28229 35286 35287 28
28230 35286 35288 28
28231 35286 35289 28
28232 35286 35290 28
28233 35291 35292 28
28234 35291 35293 28
28235 35291 35294 28
28236 35291 35295 28
28237 35296 35297 28
28238 35296 35298 28
28239 35296 35299 28
28240 35296 35300 28
28241 35301 35302 28
28242 35301 35303 28
28243 35301 35304 28
28244 35301 35305 28
28245 35306 35307 28
28246 35306 35308 28
28247 35306 35309 28
28248 35306 35310 28
28249 35311 35312 28
28250 35311 35313 28
28251 35311 35314 28
28252 35311 35315 28
28253 35316 35317 28
28254 35316 35318 28
28255 35316 35319 28
28256 35316 35320 28
28257 35321 35322 28
28258 35321 35323 28
28259 35321 35324 28
28260 35321 35325 28
28261 35326 35327 28
28262 35326 35328 28
28263 35326 35329 28
28264 35326 35330 28
28265 35331 35332 28
28266 35331 35333 28
28267 35331 35334 28
28268 35331 35335 28
28269 35336 35337 28
28270 35336 35338 28
28271 35336 35339 28
28272 35336 35340 28
28273 35341 35342 28
28274 35341 35343 28
28275 35341 35344 28
28276 35341 35345 28
28277 35346 35347 28
28278 35346 35348 28
28279 35346 35349 28
28280 35346 35350 28
28281 35351 35352 28
28282 35351 35353 28
28283 35351 35354 28
28284 35351 35355 28
28285 35356 35357 28
28286 35356 35358 28
28287 35356 35359 28
28288 35356 35360 28
28289 35361 35362 28
28290 35361 35363 28
28291 35361 35364 28
28292 35361 35365 28
28293 35366 35367 28
28294 35366 35368 28
28295 35366 35369 28
28296 35366 35370 28
28297 35371 35372 28
28298 35371 35373 28
28299 35371 35374 28
28300 35371 35375 28
28301 35376 35377 28
28302 35376 35378 28
28303 35376 35379 28
28304 35376 35380 28
28305 35381 35382 28
28306 35381 35383 28
28307 35381 35384 28
28308 35381 35385 28
28309 35386 35387 28
28310 35386 35388 28
28311 35386 35389 28
28312 35386 35390 28
28313 35391 35392 28
28314 35391 35393 28
28315 35391 35394 28
28316 35391 35395 28
28317 35396 35397 28
28318 35396 35398 28
28319 35396 35399 28
28320 35396 35400 28
28321 35401 35402 28
28322 35401 35403 28
28323 35401 35404 28
28324 35401 35405 28
28325 35406 35407 28
28326 35406 35408 28
28327 35406 35409 28
28328 35406 35410 28
28329 35411 35412 28
28330 35411 35413 28
28331 35411 35414 28
28332 35411 35415 28
28333 35416 35417 28
28334 35416 35418 28
28335 35416 35419 28
28336 35416 35420 28
28337 35421 35422 28
28338 35421 35423 28
28339 35421 35424 28
28340 35421 35425 28
28341 35426 35427 28
28342 35426 35428 28
28343 35426 35429 28
28344 35426 35430 28
28345 35431 35432 28
28346 35431 35433 28
28347 35431 35434 28
28348 35431 35435 28
28349 35436 35437 28
28350 35436 35438 28
28351 35436 35439 28
28352 35436 35440 28
28353 35441 35442 28
28354 35441 35443 28
28355 35441 35444 28
28356 35441 35445 28
28357 35446 35447 28
28358 35446 35448 28
28359 35446 35449 28
28360 35446 35450 28
28361 35451 35452 28
28362 35451 35453 28
28363 35451 35454 28
28364 35451 35455 28
28365 35456 35457 28
28366 35456 35458 28
28367 35456 35459 28
28368 35456 35460 28
28369 35461 35462 28
28370 35461 35463 28
28371 35461 35464 28
28372 35461 35465 28
28373 35466 35467 28
28374 35466 35468 28
28375 35466 35469 28
28376 35466 35470 28
28377 35471 35472 28
28378 35471 35473 28
28379 35471 35474 28
28380 35471 35475 28
28381 35476 35477 28
28382 35476 35478 28
28383 35476 35479 28
28384 35476 35480 28
28385 35481 35482 28
28386 35481 35483 28
28387 35481 35484 28
28388 35481 35485 28
28389 35486 35487 28
28390 35486 35488 28
28391 35486 35489 28
28392 35486 35490 28
28393 35491 35492 28
28394 35491 35493 28
28395 35491 35494 28
28396 35491 35495 28
28397 35496 35497 28
28398 35496 35498 28
28399 35496 35499 28
28400 35496 35500 28
28401 35501 35502 28
28402 35501 35503 28
28403 35501 35504 28
28404 35501 35505 28
28405 35506 35507 28
28406 35506 35508 28
28407 35506 35509 28
28408 35506 35510 28
28409 35511 35512 28
28410 35511 35513 28
28411 35511 35514 28
28412 35511 35515 28
28413 35516 35517 28
28414 35516 35518 28
28415 35516 35519 28
28416 35516 35520 28
28417 35521 35522 28
28418 35521 35523 28
28419 35521 35524 28
28420 35521 35525 28
28421 35526 35527 28
28422 35526 35528 28
28423 35526 35529 28
28424 35526 35530 28
28425 35531 35532 28
28426 35531 35533 28
28427 35531 35534 28
28428 35531 35535 28
28429 35536 35537 28
28430 35536 35538 28
28431 35536 35539 28
28432 35536 35540 28
28433 35541 35542 28
28434 35541 35543 28
28435 35541 35544 28
28436 35541 35545 28
28437 35546 35547 28
28438 35546 35548 28
28439 35546 35549 28
28440 35546 35550 28
28441 35551 35552 28
28442 35551 35553 28
28443 35551 35554 28
28444 35551 35555 28
28445 35556 35557 28
28446 35556 35558 28
28447 35556 35559 28
28448 35556 35560 28
28449 35561 35562 28
28450 35561 35563 28
28451 35561 35564 28
28452 35561 35565 28
28453 35566 35567 28
28454 35566 35568 28
28455 35566 35569 28
28456 35566 35570 28
28457 35571 35572 28
28458 35571 35573 28
28459 35571 35574 28
28460 35571 35575 28
28461 35576 35577 28
28462 35576 35578 28
28463 35576 35579 28
28464 35576 35580 28
28465 35581 35582 28
28466 35581 35583 28
28467 35581 35584 28
28468 35581 35585 28
28469 35586 35587 28
28470 35586 35588 28
28471 35586 35589 28
28472 35586 35590 28
28473 35591 35592 28
28474 35591 35593 28
28475 35591 35594 28
28476 35591 35595 28
28477 35596 35597 28
28478 35596 35598 28
28479 35596 35599 28
28480 35596 35600 28
28481 35601 35602 28
28482 35601 35603 28
28483 35601 35604 28
28484 35601 35605 28
28485 35606 35607 28
28486 35606 35608 28
28487 35606 35609 28
28488 35606 35610 28
28489 35611 35612 28
28490 35611 35613 28
28491 35611 35614 28
28492 35611 35615 28
28493 35616 35617 28
28494 35616 35618 28
28495 35616 35619 28
28496 35616 35620 28
28497 35621 35622 28
28498 35621 35623 28
28499 35621 35624 28
28500 35621 35625 28
28501 35626 35627 28
28502 35626 35628 28
28503 35626 35629 28
28504 35626 35630 28
28505 35631 35632 28
28506 35631 35633 28
28507 35631 35634 28
28508 35631 35635 28
28509 35636 35637 28
28510 35636 35638 28
28511 35636 35639 28
28512 35636 35640 28
28513 35641 35642 28
28514 35641 35643 28
28515 35641 35644 28
28516 35641 35645 28
28517 35646 35647 28
28518 35646 35648 28
28519 35646 35649 28
28520 35646 35650 28
28521 35651 35652 28
28522 35651 35653 28
28523 35651 35654 28
28524 35651 35655 28
28525 35656 35657 28
28526 35656 35658 28
28527 35656 35659 28
28528 35656 35660 28
28529 35661 35662 28
28530 35661 35663 28
28531 35661 35664 28
28532 35661 35665 28
28533 35666 35667 28
28534 35666 35668 28
28535 35666 35669 28
28536 35666 35670 28
28537 35671 35672 28
28538 35671 35673 28
28539 35671 35674 28
28540 35671 35675 28
28541 35676 35677 28
28542 35676 35678 28
28543 35676 35679 28
28544 35676 35680 28
28545 35681 35682 28
28546 35681 35683 28
28547 35681 35684 28
28548 35681 35685 28
28549 35686 35687 28
28550 35686 35688 28
28551 35686 35689 28
28552 35686 35690 28
28553 35691 35692 28
28554 35691 35693 28
28555 35691 35694 28
28556 35691 35695 28
28557 35696 35697 28
28558 35696 35698 28
28559 35696 35699 28
28560 35696 35700 28
28561 35701 35702 28
28562 35701 35703 28
28563 35701 35704 28
28564 35701 35705 28
28565 35706 35707 28
28566 35706 35708 28
28567 35706 35709 28
28568 35706 35710 28
28569 35711 35712 28
28570 35711 35713 28
28571 35711 35714 28
28572 35711 35715 28
28573 35716 35717 28
28574 35716 35718 28
28575 35716 35719 28
28576 35716 35720 28
28577 35721 35722 28
28578 35721 35723 28
28579 35721 35724 28
28580 35721 35725 28
28581 35726 35727 28
28582 35726 35728 28
28583 35726 35729 28
28584 35726 35730 28
28585 35731 35732 28
28586 35731 35733 28
28587 35731 35734 28
28588 35731 35735 28
28589 35736 35737 28
28590 35736 35738 28
28591 35736 35739 28
28592 35736 35740 28
28593 35741 35742 28
28594 35741 35743 28
28595 35741 35744 28
28596 35741 35745 28
28597 35746 35747 28
28598 35746 35748 28
28599 35746 35749 28
28600 35746 35750 28
28601 35751 35752 28
28602 35751 35753 28
28603 35751 35754 28
28604 35751 35755 28
28605 35756 35757 28
28606 35756 35758 28
28607 35756 35759 28
28608 35756 35760 28
28609 35761 35762 28
28610 35761 35763 28
28611 35761 35764 28
28612 35761 35765 28
28613 35766 35767 28
28614 35766 35768 28
28615 35766 35769 28
28616 35766 35770 28
28617 35771 35772 28
28618 35771 35773 28
28619 35771 35774 28
28620 35771 35775 28
28621 35776 35777 28
28622 35776 35778 28
28623 35776 35779 28
28624 35776 35780 28
28625 35781 35782 28
28626 35781 35783 28
28627 35781 35784 28
28628 35781 35785 28
28629 35786 35787 28
28630 35786 35788 28
28631 35786 35789 28
28632 35786 35790 28
28633 35791 35792 28
28634 35791 35793 28
28635 35791 35794 28
28636 35791 35795 28
28637 35796 35797 28
28638 35796 35798 28
28639 35796 35799 28
28640 35796 35800 28
28641 35801 35802 28
28642 35801 35803 28
28643 35801 35804 28
28644 35801 35805 28
28645 35806 35807 28
28646 35806 35808 28
28647 35806 35809 28
28648 35806 35810 28
28649 35811 35812 28
28650 35811 35813 28
28651 35811 35814 28
28652 35811 35815 28
28653 35816 35817 28
28654 35816 35818 28
28655 35816 35819 28
28656 35816 35820 28
28657 35821 35822 28
28658 35821 35823 28
28659 35821 35824 28
28660 35821 35825 28
28661 35826 35827 28
28662 35826 35828 28
28663 35826 35829 28
28664 35826 35830 28
28665 35831 35832 28
28666 35831 35833 28
28667 35831 35834 28
28668 35831 35835 28
28669 35836 35837 28
28670 35836 35838 28
28671 35836 35839 28
28672 35836 35840 28
28673 35841 35842 28
28674 35841 35843 28
28675 35841 35844 28
28676 35841 35845 28
28677 35846 35847 28
28678 35846 35848 28
28679 35846 35849 28
28680 35846 35850 28
28681 35851 35852 28
28682 35851 35853 28
28683 35851 35854 28
28684 35851 35855 28
28685 35856 35857 28
28686 35856 35858 28
28687 35856 35859 28
28688 35856 35860 28
28689 35861 35862 28
28690 35861 35863 28
28691 35861 35864 28
28692 35861 35865 28
28693 35866 35867 28
28694 35866 35868 28
28695 35866 35869 28
28696 35866 35870 28
28697 35871 35872 28
28698 35871 35873 28
28699 35871 35874 28
28700 35871 35875 28
28701 35876 35877 28
28702 35876 35878 28
28703 35876 35879 28
28704 35876 35880 28
28705 35881 35882 28
28706 35881 35883 28
28707 35881 35884 28
28708 35881 35885 28
28709 35886 35887 28
28710 35886 35888 28
28711 35886 35889 28
28712 35886 35890 28
28713 35891 35892 28
28714 35891 35893 28
28715 35891 35894 28
28716 35891 35895 28
28717 35896 35897 28
28718 35896 35898 28
28719 35896 35899 28
28720 35896 35900 28
28721 35901 35902 28
28722 35901 35903 28
28723 35901 35904 28
28724 35901 35905 28
28725 35906 35907 28
28726 35906 35908 28
28727 35906 35909 28
28728 35906 35910 28
28729 35911 35912 28
28730 35911 35913 28
28731 35911 35914 28
28732 35911 35915 28
28733 35916 35917 28
28734 35916 35918 28
28735 35916 35919 28
28736 35916 35920 28
28737 35921 35922 28
28738 35921 35923 28
28739 35921 35924 28
28740 35921 35925 28
28741 35926 35927 28
28742 35926 35928 28
28743 35926 35929 28
28744 35926 35930 28
28745 35931 35932 28
28746 35931 35933 28
28747 35931 35934 28
28748 35931 35935 28
28749 35936 35937 28
28750 35936 35938 28
28751 35936 35939 28
28752 35936 35940 28
28753 35941 35942 28
28754 35941 35943 28
28755 35941 35944 28
28756 35941 35945 28
28757 35946 35947 28
28758 35946 35948 28
28759 35946 35949 28
28760 35946 35950 28
28761 35951 35952 28
28762 35951 35953 28
28763 35951 35954 28
28764 35951 35955 28
28765 35956 35957 28
28766 35956 35958 28
28767 35956 35959 28
28768 35956 35960 28
28769 35961 35962 28
28770 35961 35963 28
28771 35961 35964 28
28772 35961 35965 28
28773 35966 35967 28
28774 35966 35968 28
28775 35966 35969 28
28776 35966 35970 28
28777 35971 35972 28
28778 35971 35973 28
28779 35971 35974 28
28780 35971 35975 28
28781 35976 35977 28
28782 35976 35978 28
28783 35976 35979 28
28784 35976 35980 28
28785 35981 35982 28
28786 35981 35983 28
28787 35981 35984 28
28788 35981 35985 28
28789 35986 35987 28
28790 35986 35988 28
28791 35986 35989 28
28792 35986 35990 28
28793 35991 35992 28
28794 35991 35993 28
28795 35991 35994 28
28796 35991 35995 28
28797 35996 35997 28
28798 35996 35998 28
28799 35996 35999 28
28800 35996 36000 28
28801 36001 36002 28
28802 36001 36003 28
28803 36001 36004 28
28804 36001 36005 28
28805 36006 36007 28
28806 36006 36008 28
28807 36006 36009 28
28808 36006 36010 28
28809 36011 36012 28
28810 36011 36013 28
28811 36011 36014 28
28812 36011 36015 28
28813 36016 36017 28
28814 36016 36018 28
28815 36016 36019 28
28816 36016 36020 28
28817 36021 36022 28
28818 36021 36023 28
28819 36021 36024 28
28820 36021 36025 28
28821 36026 36027 28
28822 36026 36028 28
28823 36026 36029 28
28824 36026 36030 28
28825 36031 36032 28
28826 36031 36033 28
28827 36031 36034 28
28828 36031 36035 28
28829 36036 36037 28
28830 36036 36038 28
28831 36036 36039 28
28832 36036 36040 28
28833 36041 36042 28
28834 36041 36043 28
28835 36041 36044 28
28836 36041 36045 28
28837 36046 36047 28
28838 36046 36048 28
28839 36046 36049 28
28840 36046 36050 28
28841 36051 36052 28
28842 36051 36053 28
28843 36051 36054 28
28844 36051 36055 28
28845 36056 36057 28
28846 36056 36058 28
28847 36056 36059 28
28848 36056 36060 28
28849 36061 36062 28
28850 36061 36063 28
28851 36061 36064 28
28852 36061 36065 28
28853 36066 36067 28
28854 36066 36068 28
28855 36066 36069 28
28856 36066 36070 28
28857 36071 36072 28
28858 36071 36073 28
28859 36071 36074 28
28860 36071 36075 28
28861 36076 36077 28
28862 36076 36078 28
28863 36076 36079 28
28864 36076 36080 28
28865 36081 36082 28
28866 36081 36083 28
28867 36081 36084 28
28868 36081 36085 28
28869 36086 36087 28
28870 36086 36088 28
28871 36086 36089 28
28872 36086 36090 28
28873 36091 36092 28
28874 36091 36093 28
28875 36091 36094 28
28876 36091 36095 28
28877 36096 36097 28
28878 36096 36098 28
28879 36096 36099 28
28880 36096 36100 28
28881 36101 36102 28
28882 36101 36103 28
28883 36101 36104 28
28884 36101 36105 28
28885 36106 36107 28
28886 36106 36108 28
28887 36106 36109 28
28888 36106 36110 28
28889 36111 36112 28
28890 36111 36113 28
28891 36111 36114 28
28892 36111 36115 28
28893 36116 36117 28
28894 36116 36118 28
28895 36116 36119 28
28896 36116 36120 28
28897 36121 36122 28
28898 36121 36123 28
28899 36121 36124 28
28900 36121 36125 28
28901 36126 36127 28
28902 36126 36128 28
28903 36126 36129 28
28904 36126 36130 28
28905 36131 36132 28
28906 36131 36133 28
28907 36131 36134 28
28908 36131 36135 28
28909 36136 36137 28
28910 36136 36138 28
28911 36136 36139 28
28912 36136 36140 28
28913 36141 36142 28
28914 36141 36143 28
28915 36141 36144 28
28916 36141 36145 28
28917 36146 36147 28
28918 36146 36148 28
28919 36146 36149 28
28920 36146 36150 28
28921 36151 36152 28
28922 36151 36153 28
28923 36151 36154 28
28924 36151 36155 28
28925 36156 36157 28
28926 36156 36158 28
28927 36156 36159 28
28928 36156 36160 28
28929 36161 36162 28
28930 36161 36163 28
28931 36161 36164 28
28932 36161 36165 28
28933 36166 36167 28
28934 36166 36168 28
28935 36166 36169 28
28936 36166 36170 28
28937 36171 36172 28
28938 36171 36173 28
28939 36171 36174 28
28940 36171 36175 28
28941 36176 36177 28
28942 36176 36178 28
28943 36176 36179 28
28944 36176 36180 28
28945 36181 36182 28
28946 36181 36183 28
28947 36181 36184 28
28948 36181 36185 28
28949 36186 36187 28
28950 36186 36188 28
28951 36186 36189 28
28952 36186 36190 28
28953 36191 36192 28
28954 36191 36193 28
28955 36191 36194 28
28956 36191 36195 28
28957 36196 36197 28
28958 36196 36198 28
28959 36196 36199 28
28960 36196 36200 28
28961 36201 36202 28
28962 36201 36203 28
28963 36201 36204 28
28964 36201 36205 28
28965 36206 36207 28
28966 36206 36208 28
28967 36206 36209 28
28968 36206 36210 28
28969 36211 36212 28
28970 36211 36213 28
28971 36211 36214 28
28972 36211 36215 28
28973 36216 36217 28
28974 36216 36218 28
28975 36216 36219 28
28976 36216 36220 28
28977 36221 36222 28
28978 36221 36223 28
28979 36221 36224 28
28980 36221 36225 28
28981 36226 36227 28
28982 36226 36228 28
28983 36226 36229 28
28984 36226 36230 28
28985 36231 36232 28
28986 36231 36233 28
28987 36231 36234 28
28988 36231 36235 28
28989 36236 36237 28
28990 36236 36238 28
28991 36236 36239 28
28992 36236 36240 28
28993 36241 36242 28
28994 36241 36243 28
28995 36241 36244 28
28996 36241 36245 28
28997 36246 36247 28
28998 36246 36248 28
28999 36246 36249 28
29000 36246 36250 28
29001 36251 36252 28
29002 36251 36253 28
29003 36251 36254 28
29004 36251 36255 28
29005 36256 36257 28
29006 36256 36258 28
29007 36256 36259 28
29008 36256 36260 28
29009 36261 36262 28
29010 36261 36263 28
29011 36261 36264 28
29012 36261 36265 28
29013 36266 36267 28
29014 36266 36268 28
29015 36266 36269 28
29016 36266 36270 28
29017 36271 36272 28
29018 36271 36273 28
29019 36271 36274 28
29020 36271 36275 28
29021 36276 36277 28
29022 36276 36278 28
29023 36276 36279 28
29024 36276 36280 28
29025 36281 36282 28
29026 36281 36283 28
29027 36281 36284 28
29028 36281 36285 28
29029 36286 36287 28
29030 36286 36288 28
29031 36286 36289 28
29032 36286 36290 28
29033 36291 36292 28
29034 36291 36293 28
29035 36291 36294 28
29036 36291 36295 28
29037 36296 36297 28
29038 36296 36298 28
29039 36296 36299 28
29040 36296 36300 28
29041 36301 36302 28
29042 36301 36303 28
29043 36301 36304 28
29044 36301 36305 28
29045 36306 36307 28
29046 36306 36308 28
29047 36306 36309 28
29048 36306 36310 28
29049 36311 36312 28
29050 36311 36313 28
29051 36311 36314 28
29052 36311 36315 28
29053 36316 36317 28
29054 36316 36318 28
29055 36316 36319 28
29056 36316 36320 28
29057 36321 36322 28
29058 36321 36323 28
29059 36321 36324 28
29060 36321 36325 28
29061 36326 36327 28
29062 36326 36328 28
29063 36326 36329 28
29064 36326 36330 28
29065 36331 36332 28
29066 36331 36333 28
29067 36331 36334 28
29068 36331 36335 28
29069 36336 36337 28
29070 36336 36338 28
29071 36336 36339 28
29072 36336 36340 28
29073 36341 36342 28
29074 36341 36343 28
29075 36341 36344 28
29076 36341 36345 28
29077 36346 36347 28
29078 36346 36348 28
29079 36346 36349 28
29080 36346 36350 28
29081 36351 36352 28
29082 36351 36353 28
29083 36351 36354 28
29084 36351 36355 28
29085 36356 36357 28
29086 36356 36358 28
29087 36356 36359 28
29088 36356 36360 28
29089 36361 36362 28
29090 36361 36363 28
29091 36361 36364 28
29092 36361 36365 28
29093 36366 36367 28
29094 36366 36368 28
29095 36366 36369 28
29096 36366 36370 28
29097 36371 36372 28
29098 36371 36373 28
29099 36371 36374 28
29100 36371 36375 28
29101 36376 36377 28
29102 36376 36378 28
29103 36376 36379 28
29104 36376 36380 28
29105 36381 36382 28
29106 36381 36383 28
29107 36381 36384 28
29108 36381 36385 28
29109 36386 36387 28
29110 36386 36388 28
29111 36386 36389 28
29112 36386 36390 28
29113 36391 36392 28
29114 36391 36393 28
29115 36391 36394 28
29116 36391 36395 28
29117 36396 36397 28
29118 36396 36398 28
29119 36396 36399 28
29120 36396 36400 28
29121 36401 36402 28
29122 36401 36403 28
29123 36401 36404 28
29124 36401 36405 28
29125 36406 36407 28
29126 36406 36408 28
29127 36406 36409 28
29128 36406 36410 28
29129 36411 36412 28
29130 36411 36413 28
29131 36411 36414 28
29132 36411 36415 28
29133 36416 36417 28
29134 36416 36418 28
29135 36416 36419 28
29136 36416 36420 28
29137 36421 36422 28
29138 36421 36423 28
29139 36421 36424 28
29140 36421 36425 28
29141 36426 36427 28
29142 36426 36428 28
29143 36426 36429 28
29144 36426 36430 28
29145 36431 36432 28
29146 36431 36433 28
29147 36431 36434 28
29148 36431 36435 28
29149 36436 36437 28
29150 36436 36438 28
29151 36436 36439 28
29152 36436 36440 28
29153 36441 36442 28
29154 36441 36443 28
29155 36441 36444 28
29156 36441 36445 28
29157 36446 36447 28
29158 36446 36448 28
29159 36446 36449 28
29160 36446 36450 28
29161 36451 36452 28
29162 36451 36453 28
29163 36451 36454 28
29164 36451 36455 28
29165 36456 36457 28
29166 36456 36458 28
29167 36456 36459 28
29168 36456 36460 28
29169 36461 36462 28
29170 36461 36463 28
29171 36461 36464 28
29172 36461 36465 28
29173 36466 36467 28
29174 36466 36468 28
29175 36466 36469 28
29176 36466 36470 28
29177 36471 36472 28
29178 36471 36473 28
29179 36471 36474 28
29180 36471 36475 28
29181 36476 36477 28
29182 36476 36478 28
29183 36476 36479 28
29184 36476 36480 28
29185 36481 36482 28
29186 36481 36483 28
29187 36481 36484 28
29188 36481 36485 28
29189 36486 36487 28
29190 36486 36488 28
29191 36486 36489 28
29192 36486 36490 28
29193 36491 36492 28
29194 36491 36493 28
29195 36491 36494 28
29196 36491 36495 28
29197 36496 36497 28
29198 36496 36498 28
29199 36496 36499 28
29200 36496 36500 28
29201 36501 36502 28
29202 36501 36503 28
29203 36501 36504 28
29204 36501 36505 28
29205 36506 36507 28
29206 36506 36508 28
29207 36506 36509 28
29208 36506 36510 28
29209 36511 36512 28
29210 36511 36513 28
29211 36511 36514 28
29212 36511 36515 28
29213 36516 36517 28
29214 36516 36518 28
29215 36516 36519 28
29216 36516 36520 28
29217 36521 36522 28
29218 36521 36523 28
29219 36521 36524 28
29220 36521 36525 28
29221 36526 36527 28
29222 36526 36528 28
29223 36526 36529 28
29224 36526 36530 28
29225 36531 36532 28
29226 36531 36533 28
29227 36531 36534 28
29228 36531 36535 28
29229 36536 36537 28
29230 36536 36538 28
29231 36536 36539 28
29232 36536 36540 28
29233 36541 36542 28
29234 36541 36543 28
29235 36541 36544 28
29236 36541 36545 28
29237 36546 36547 28
29238 36546 36548 28
29239 36546 36549 28
29240 36546 36550 28
29241 36551 36552 28
29242 36551 36553 28
29243 36551 36554 28
29244 36551 36555 28
29245 36556 36557 28
29246 36556 36558 28
29247 36556 36559 28
29248 36556 36560 28
29249 36561 36562 28
29250 36561 36563 28
29251 36561 36564 28
29252 36561 36565 28
29253 36566 36567 28
29254 36566 36568 28
29255 36566 36569 28
29256 36566 36570 28
29257 36571 36572 28
29258 36571 36573 28
29259 36571 36574 28
29260 36571 36575 28
29261 36576 36577 28
29262 36576 36578 28
29263 36576 36579 28
29264 36576 36580 28
29265 36581 36582 28
29266 36581 36583 28
29267 36581 36584 28
29268 36581 36585 28
29269 36586 36587 28
29270 36586 36588 28
29271 36586 36589 28
29272 36586 36590 28
29273 36591 36592 28
29274 36591 36593 28
29275 36591 36594 28
29276 36591 36595 28
29277 36596 36597 28
29278 36596 36598 28
29279 36596 36599 28
29280 36596 36600 28
29281 36601 36602 28
29282 36601 36603 28
29283 36601 36604 28
29284 36601 36605 28
29285 36606 36607 28
29286 36606 36608 28
29287 36606 36609 28
29288 36606 36610 28
29289 36611 36612 28
29290 36611 36613 28
29291 36611 36614 28
29292 36611 36615 28
29293 36616 36617 28
29294 36616 36618 28
29295 36616 36619 28
29296 36616 36620 28
29297 36621 36622 28
29298 36621 36623 28
29299 36621 36624 28
29300 36621 36625 28
29301 36626 36627 28
29302 36626 36628 28
29303 36626 36629 28
29304 36626 36630 28
29305 36631 36632 28
29306 36631 36633 28
29307 36631 36634 28
29308 36631 36635 28
29309 36636 36637 28
29310 36636 36638 28
29311 36636 36639 28
29312 36636 36640 28
29313 36641 36642 28
29314 36641 36643 28
29315 36641 36644 28
29316 36641 36645 28
29317 36646 36647 28
29318 36646 36648 28
29319 36646 36649 28
29320 36646 36650 28
29321 36651 36652 28
29322 36651 36653 28
29323 36651 36654 28
29324 36651 36655 28
29325 36656 36657 28
29326 36656 36658 28
29327 36656 36659 28
29328 36656 36660 28
29329 36661 36662 28
29330 36661 36663 28
29331 36661 36664 28
29332 36661 36665 28
29333 36666 36667 28
29334 36666 36668 28
29335 36666 36669 28
29336 36666 36670 28
29337 36671 36672 28
29338 36671 36673 28
29339 36671 36674 28
29340 36671 36675 28
29341 36676 36677 28
29342 36676 36678 28
29343 36676 36679 28
29344 36676 36680 28
29345 36681 36682 28
29346 36681 36683 28
29347 36681 36684 28
29348 36681 36685 28
29349 36686 36687 28
29350 36686 36688 28
29351 36686 36689 28
29352 36686 36690 28
29353 36691 36692 28
29354 36691 36693 28
29355 36691 36694 28
29356 36691 36695 28
29357 36696 36697 28
29358 36696 36698 28
29359 36696 36699 28
29360 36696 36700 28
29361 36701 36702 28
29362 36701 36703 28
29363 36701 36704 28
29364 36701 36705 28
29365 36706 36707 28
29366 36706 36708 28
29367 36706 36709 28
29368 36706 36710 28
29369 36711 36712 28
29370 36711 36713 28
29371 36711 36714 28
29372 36711 36715 28
29373 36716 36717 28
29374 36716 36718 28
29375 36716 36719 28
29376 36716 36720 28
29377 36721 36722 28
29378 36721 36723 28
29379 36721 36724 28
29380 36721 36725 28
29381 36726 36727 28
29382 36726 36728 28
29383 36726 36729 28
29384 36726 36730 28
29385 36731 36732 28
29386 36731 36733 28
29387 36731 36734 28
29388 36731 36735 28
29389 36736 36737 28
29390 36736 36738 28
29391 36736 36739 28
29392 36736 36740 28
29393 36741 36742 28
29394 36741 36743 28
29395 36741 36744 28
29396 36741 36745 28
29397 36746 36747 28
29398 36746 36748 28
29399 36746 36749 28
29400 36746 36750 28
29401 36751 36752 28
29402 36751 36753 28
29403 36751 36754 28
29404 36751 36755 28
29405 36756 36757 28
29406 36756 36758 28
29407 36756 36759 28
29408 36756 36760 28
29409 36761 36762 28
29410 36761 36763 28
29411 36761 36764 28
29412 36761 36765 28
29413 36766 36767 28
29414 36766 36768 28
29415 36766 36769 28
29416 36766 36770 28
29417 36771 36772 28
29418 36771 36773 28
29419 36771 36774 28
29420 36771 36775 28
29421 36776 36777 28
29422 36776 36778 28
29423 36776 36779 28
29424 36776 36780 28
29425 36781 36782 28
29426 36781 36783 28
29427 36781 36784 28
29428 36781 36785 28
29429 36786 36787 28
29430 36786 36788 28
29431 36786 36789 28
29432 36786 36790 28
29433 36791 36792 28
29434 36791 36793 28
29435 36791 36794 28
29436 36791 36795 28
29437 36796 36797 28
29438 36796 36798 28
29439 36796 36799 28
29440 36796 36800 28
29441 36801 36802 28
29442 36801 36803 28
29443 36801 36804 28
29444 36801 36805 28
29445 36806 36807 28
29446 36806 36808 28
29447 36806 36809 28
29448 36806 36810 28
29449 36811 36812 28
29450 36811 36813 28
29451 36811 36814 28
29452 36811 36815 28
29453 36816 36817 28
29454 36816 36818 28
29455 36816 36819 28
29456 36816 36820 28
29457 36821 36822 28
29458 36821 36823 28
29459 36821 36824 28
29460 36821 36825 28
29461 36826 36827 28
29462 36826 36828 28
29463 36826 36829 28
29464 36826 36830 28
29465 36831 36832 28
29466 36831 36833 28
29467 36831 36834 28
29468 36831 36835 28
29469 36836 36837 28
29470 36836 36838 28
29471 36836 36839 28
29472 36836 36840 28
29473 36841 36842 28
29474 36841 36843 28
29475 36841 36844 28
29476 36841 36845 28
29477 36846 36847 28
29478 36846 36848 28
29479 36846 36849 28
29480 36846 36850 28
29481 36851 36852 28
29482 36851 36853 28
29483 36851 36854 28
29484 36851 36855 28
29485 36856 36857 28
29486 36856 36858 28
29487 36856 36859 28
29488 36856 36860 28
29489 36861 36862 28
29490 36861 36863 28
29491 36861 36864 28
29492 36861 36865 28
29493 36866 36867 28
29494 36866 36868 28
29495 36866 36869 28
29496 36866 36870 28
29497 36871 36872 28
29498 36871 36873 28
29499 36871 36874 28
29500 36871 36875 28
29501 36876 36877 28
29502 36876 36878 28
29503 36876 36879 28
29504 36876 36880 28
29505 36881 36882 28
29506 36881 36883 28
29507 36881 36884 28
29508 36881 36885 28
29509 36886 36887 28
29510 36886 36888 28
29511 36886 36889 28
29512 36886 36890 28
29513 36891 36892 28
29514 36891 36893 28
29515 36891 36894 28
29516 36891 36895 28
29517 36896 36897 28
29518 36896 36898 28
29519 36896 36899 28
29520 36896 36900 28
29521 36901 36902 28
29522 36901 36903 28
29523 36901 36904 28
29524 36901 36905 28
29525 36906 36907 28
29526 36906 36908 28
29527 36906 36909 28
29528 36906 36910 28
29529 36911 36912 28
29530 36911 36913 28
29531 36911 36914 28
29532 36911 36915 28
29533 36916 36917 28
29534 36916 36918 28
29535 36916 36919 28
29536 36916 36920 28
29537 36921 36922 28
29538 36921 36923 28
29539 36921 36924 28
29540 36921 36925 28
29541 36926 36927 28
29542 36926 36928 28
29543 36926 36929 28
29544 36926 36930 28
29545 36931 36932 28
29546 36931 36933 28
29547 36931 36934 28
29548 36931 36935 28
29549 36936 36937 28
29550 36936 36938 28
29551 36936 36939 28
29552 36936 36940 28
29553 36941 36942 28
29554 36941 36943 28
29555 36941 36944 28
29556 36941 36945 28
29557 36946 36947 28
29558 36946 36948 28
29559 36946 36949 28
29560 36946 36950 28
29561 36951 36952 28
29562 36951 36953 28
29563 36951 36954 28
29564 36951 36955 28
29565 36956 36957 28
29566 36956 36958 28
29567 36956 36959 28
29568 36956 36960 28
29569 36961 36962 28
29570 36961 36963 28
29571 36961 36964 28
29572 36961 36965 28
29573 36966 36967 28
29574 36966 36968 28
29575 36966 36969 28
29576 36966 36970 28
29577 36971 36972 28
29578 36971 36973 28
29579 36971 36974 28
29580 36971 36975 28
29581 36976 36977 28
29582 36976 36978 28
29583 36976 36979 28
29584 36976 36980 28
29585 36981 36982 28
29586 36981 36983 28
29587 36981 36984 28
29588 36981 36985 28
29589 36986 36987 28
29590 36986 36988 28
29591 36986 36989 28
29592 36986 36990 28
29593 36991 36992 28
29594 36991 36993 28
29595 36991 36994 28
29596 36991 36995 28
29597 36996 36997 28
29598 36996 36998 28
29599 36996 36999 28
29600 36996 37000 28
29601 37001 37002 28
29602 37001 37003 28
29603 37001 37004 28
29604 37001 37005 28
29605 37006 37007 28
29606 37006 37008 28
29607 37006 37009 28
29608 37006 37010 28
29609 37011 37012 28
29610 37011 37013 28
29611 37011 37014 28
29612 37011 37015 28
29613 37016 37017 28
29614 37016 37018 28
29615 37016 37019 28
29616 37016 37020 28
29617 37021 37022 28
29618 37021 37023 28
29619 37021 37024 28
29620 37021 37025 28
29621 37026 37027 28
29622 37026 37028 28
29623 37026 37029 28
29624 37026 37030 28
29625 37031 37032 28
29626 37031 37033 28
29627 37031 37034 28
29628 37031 37035 28
29629 37036 37037 28
29630 37036 37038 28
29631 37036 37039 28
29632 37036 37040 28
29633 37041 37042 28
29634 37041 37043 28
29635 37041 37044 28
29636 37041 37045 28
29637 37046 37047 28
29638 37046 37048 28
29639 37046 37049 28
29640 37046 37050 28
29641 37051 37052 28
29642 37051 37053 28
29643 37051 37054 28
29644 37051 37055 28
29645 37056 37057 28
29646 37056 37058 28
29647 37056 37059 28
29648 37056 37060 28
29649 37061 37062 28
29650 37061 37063 28
29651 37061 37064 28
29652 37061 37065 28
29653 37066 37067 28
29654 37066 37068 28
29655 37066 37069 28
29656 37066 37070 28
29657 37071 37072 28
29658 37071 37073 28
29659 37071 37074 28
29660 37071 37075 28
29661 37076 37077 28
29662 37076 37078 28
29663 37076 37079 28
29664 37076 37080 28
29665 37081 37082 28
29666 37081 37083 28
29667 37081 37084 28
29668 37081 37085 28
29669 37086 37087 28
29670 37086 37088 28
29671 37086 37089 28
29672 37086 37090 28
29673 37091 37092 28
29674 37091 37093 28
29675 37091 37094 28
29676 37091 37095 28
29677 37096 37097 28
29678 37096 37098 28
29679 37096 37099 28
29680 37096 37100 28
29681 37101 37102 28
29682 37101 37103 28
29683 37101 37104 28
29684 37101 37105 28
29685 37106 37107 28
29686 37106 37108 28
29687 37106 37109 28
29688 37106 37110 28
29689 37111 37112 28
29690 37111 37113 28
29691 37111 37114 28
29692 37111 37115 28
29693 37116 37117 28
29694 37116 37118 28
29695 37116 37119 28
29696 37116 37120 28
29697 37121 37122 28
29698 37121 37123 28
29699 37121 37124 28
29700 37121 37125 28
29701 37126 37127 28
29702 37126 37128 28
29703 37126 37129 28
29704 37126 37130 28
29705 37131 37132 28
29706 37131 37133 28
29707 37131 37134 28
29708 37131 37135 28
29709 37136 37137 28
29710 37136 37138 28
29711 37136 37139 28
29712 37136 37140 28
29713 37141 37142 28
29714 37141 37143 28
29715 37141 37144 28
29716 37141 37145 28
29717 37146 37147 28
29718 37146 37148 28
29719 37146 37149 28
29720 37146 37150 28
29721 37151 37152 28
29722 37151 37153 28
29723 37151 37154 28
29724 37151 37155 28
29725 37156 37157 28
29726 37156 37158 28
29727 37156 37159 28
29728 37156 37160 28
29729 37161 37162 28
29730 37161 37163 28
29731 37161 37164 28
29732 37161 37165 28
29733 37166 37167 28
29734 37166 37168 28
29735 37166 37169 28
29736 37166 37170 28
29737 37171 37172 28
29738 37171 37173 28
29739 37171 37174 28
29740 37171 37175 28
29741 37176 37177 28
29742 37176 37178 28
29743 37176 37179 28
29744 37176 37180 28
29745 37181 37182 28
29746 37181 37183 28
29747 37181 37184 28
29748 37181 37185 28
29749 37186 37187 28
29750 37186 37188 28
29751 37186 37189 28
29752 37186 37190 28
29753 37191 37192 28
29754 37191 37193 28
29755 37191 37194 28
29756 37191 37195 28
29757 37196 37197 28
29758 37196 37198 28
29759 37196 37199 28
29760 37196 37200 28
29761 37201 37202 28
29762 37201 37203 28
29763 37201 37204 28
29764 37201 37205 28
29765 37206 37207 28
29766 37206 37208 28
29767 37206 37209 28
29768 37206 37210 28
29769 37211 37212 28
29770 37211 37213 28
29771 37211 37214 28
29772 37211 37215 28
29773 37216 37217 28
29774 37216 37218 28
29775 37216 37219 28
29776 37216 37220 28
29777 37221 37222 28
29778 37221 37223 28
29779 37221 37224 28
29780 37221 37225 28
29781 37226 37227 28
29782 37226 37228 28
29783 37226 37229 28
29784 37226 37230 28
29785 37231 37232 28
29786 37231 37233 28
29787 37231 37234 28
29788 37231 37235 28
29789 37236 37237 28
29790 37236 37238 28
29791 37236 37239 28
29792 37236 37240 28
29793 37241 37242 28
29794 37241 37243 28
29795 37241 37244 28
29796 37241 37245 28
29797 37246 37247 28
29798 37246 37248 28
29799 37246 37249 28
29800 37246 37250 28
29801 37251 37252 28
29802 37251 37253 28
29803 37251 37254 28
29804 37251 37255 28
29805 37256 37257 28
29806 37256 37258 28
29807 37256 37259 28
29808 37256 37260 28
29809 37261 37262 28
29810 37261 37263 28
29811 37261 37264 28
29812 37261 37265 28
29813 37266 37267 28
29814 37266 37268 28
29815 37266 37269 28
29816 37266 37270 28
29817 37271 37272 28
29818 37271 37273 28
29819 37271 37274 28
29820 37271 37275 28
29821 37276 37277 28
29822 37276 37278 28
29823 37276 37279 28
29824 37276 37280 28
29825 37281 37282 28
29826 37281 37283 28
29827 37281 37284 28
29828 37281 37285 28
29829 37286 37287 28
29830 37286 37288 28
29831 37286 37289 28
29832 37286 37290 28
29833 37291 37292 28
29834 37291 37293 28
29835 37291 37294 28
29836 37291 37295 28
29837 37296 37297 28
29838 37296 37298 28
29839 37296 37299 28
29840 37296 37300 28
29841 37301 37302 28
29842 37301 37303 28
29843 37301 37304 28
29844 37301 37305 28
29845 37306 37307 28
29846 37306 37308 28
29847 37306 37309 28
29848 37306 37310 28
29849 37311 37312 28
29850 37311 37313 28
29851 37311 37314 28
29852 37311 37315 28
29853 37316 37317 28
29854 37316 37318 28
29855 37316 37319 28
29856 37316 37320 28
29857 37321 37322 28
29858 37321 37323 28
29859 37321 37324 28
29860 37321 37325 28
29861 37326 37327 28
29862 37326 37328 28
29863 37326 37329 28
29864 37326 37330 28
29865 37331 37332 28
29866 37331 37333 28
29867 37331 37334 28
29868 37331 37335 28
29869 37336 37337 28
29870 37336 37338 28
29871 37336 37339 28
29872 37336 37340 28
29873 37341 37342 28
29874 37341 37343 28
29875 37341 37344 28
29876 37341 37345 28
29877 37346 37347 28
29878 37346 37348 28
29879 37346 37349 28
29880 37346 37350 28
29881 37351 37352 28
29882 37351 37353 28
29883 37351 37354 28
29884 37351 37355 28
29885 37356 37357 28
29886 37356 37358 28
29887 37356 37359 28
29888 37356 37360 28
29889 37361 37362 28
29890 37361 37363 28
29891 37361 37364 28
29892 37361 37365 28
29893 37366 37367 28
29894 37366 37368 28
29895 37366 37369 28
29896 37366 37370 28
29897 37371 37372 28
29898 37371 37373 28
29899 37371 37374 28
29900 37371 37375 28
29901 37376 37377 28
29902 37376 37378 28
29903 37376 37379 28
29904 37376 37380 28
29905 37381 37382 28
29906 37381 37383 28
29907 37381 37384 28
29908 37381 37385 28
29909 37386 37387 28
29910 37386 37388 28
29911 37386 37389 28
29912 37386 37390 28
29913 37391 37392 28
29914 37391 37393 28
29915 37391 37394 28
29916 37391 37395 28
29917 37396 37397 28
29918 37396 37398 28
29919 37396 37399 28
29920 37396 37400 28
29921 37401 37402 28
29922 37401 37403 28
29923 37401 37404 28
29924 37401 37405 28
29925 37406 37407 28
29926 37406 37408 28
29927 37406 37409 28
29928 37406 37410 28
29929 37411 37412 28
29930 37411 37413 28
29931 37411 37414 28
29932 37411 37415 28
29933 37416 37417 28
29934 37416 37418 28
29935 37416 37419 28
29936 37416 37420 28
29937 37421 37422 28
29938 37421 37423 28
29939 37421 37424 28
29940 37421 37425 28
29941 37426 37427 28
29942 37426 37428 28
29943 37426 37429 28
29944 37426 37430 28
29945 37431 37432 28
29946 37431 37433 28
29947 37431 37434 28
29948 37431 37435 28
29949 37436 37437 28
29950 37436 37438 28
29951 37436 37439 28
29952 37436 37440 28
29953 37441 37442 28
29954 37441 37443 28
29955 37441 37444 28
29956 37441 37445 28
29957 37446 37447 28
29958 37446 37448 28
29959 37446 37449 28
29960 37446 37450 28
29961 37451 37452 28
29962 37451 37453 28
29963 37451 37454 28
29964 37451 37455 28
29965 37456 37457 28
29966 37456 37458 28
29967 37456 37459 28
29968 37456 37460 28
29969 37461 37462 28
29970 37461 37463 28
29971 37461 37464 28
29972 37461 37465 28
29973 37466 37467 28
29974 37466 37468 28
29975 37466 37469 28
29976 37466 37470 28
29977 37471 37472 28
29978 37471 37473 28
29979 37471 37474 28
29980 37471 37475 28
29981 37476 37477 28
29982 37476 37478 28
29983 37476 37479 28
29984 37476 37480 28
29985 37481 37482 28
29986 37481 37483 28
29987 37481 37484 28
29988 37481 37485 28
29989 37486 37487 28
29990 37486 37488 28
29991 37486 37489 28
29992 37486 37490 28
29993 37491 37492 28
29994 37491 37493 28
29995 37491 37494 28
29996 37491 37495 28
29997 37496 37497 28
29998 37496 37498 28
29999 37496 37499 28
30000 37496 37500 28
@<TRIPOS>CRYSIN
107.12780043409529 107.12780043409529 107.12780043409529 90 90 90 1 1
